data_image0
_cell_length_a       22.346
_cell_length_b       15.649
_cell_length_c       13.588
_cell_angle_alpha    90
_cell_angle_beta     97.183
_cell_angle_gamma    90

_symmetry_space_group_name_H-M    "P 1"
_symmetry_int_tables_number       1

loop_
  _symmetry_equiv_pos_as_xyz
  'x, y, z'

loop_
  _atom_site_label
  _atom_site_occupancy
  _atom_site_fract_x
  _atom_site_fract_y
  _atom_site_fract_z
  _atom_site_thermal_displace_type
  _atom_site_B_iso_or_equiv
  _atom_site_type_symbol
  Cu1      1.0000 0.49977  0.04508  0.15536  Biso   1.000  Cu
  Cu2      1.0000 0.50023  0.04508  0.34464  Biso   1.000  Cu
  Cu3      1.0000 0.99977  0.54508  0.15536  Biso   1.000  Cu
  Cu4      1.0000 0.00023  0.54508  0.34464  Biso   1.000  Cu
  Cu5      1.0000 0.50023  0.95492  0.84464  Biso   1.000  Cu
  Cu6      1.0000 0.49977  0.95492  0.65536  Biso   1.000  Cu
  Cu7      1.0000 0.00023  0.45492  0.84464  Biso   1.000  Cu
  Cu8      1.0000 0.99977  0.45492  0.65536  Biso   1.000  Cu
  Cu9      1.0000 0.41204  0.14754  0.21016  Biso   1.000  Cu
  Cu10     1.0000 0.58796  0.14754  0.28984  Biso   1.000  Cu
  Cu11     1.0000 0.91204  0.64754  0.21016  Biso   1.000  Cu
  Cu12     1.0000 0.08796  0.64754  0.28984  Biso   1.000  Cu
  Cu13     1.0000 0.58796  0.85246  0.78984  Biso   1.000  Cu
  Cu14     1.0000 0.41204  0.85246  0.71016  Biso   1.000  Cu
  Cu15     1.0000 0.08796  0.35246  0.78984  Biso   1.000  Cu
  Cu16     1.0000 0.91204  0.35246  0.71016  Biso   1.000  Cu
  C1       1.0000 0.50600  0.25380  0.12740  Biso   1.000  C
  C2       1.0000 0.49400  0.25380  0.37260  Biso   1.000  C
  C3       1.0000 0.00600  0.75380  0.12740  Biso   1.000  C
  C4       1.0000 0.99400  0.75380  0.37260  Biso   1.000  C
  C5       1.0000 0.49400  0.74620  0.87260  Biso   1.000  C
  C6       1.0000 0.50600  0.74620  0.62740  Biso   1.000  C
  C7       1.0000 0.99400  0.24620  0.87260  Biso   1.000  C
  C8       1.0000 0.00600  0.24620  0.62740  Biso   1.000  C
  C9       1.0000 0.50440  0.40050  0.12150  Biso   1.000  C
  C10      1.0000 0.49560  0.40050  0.37850  Biso   1.000  C
  C11      1.0000 0.00440  0.90050  0.12150  Biso   1.000  C
  C12      1.0000 0.99560  0.90050  0.37850  Biso   1.000  C
  C13      1.0000 0.49560  0.59950  0.87850  Biso   1.000  C
  C14      1.0000 0.50440  0.59950  0.62150  Biso   1.000  C
  C15      1.0000 0.99560  0.09950  0.87850  Biso   1.000  C
  C16      1.0000 0.00440  0.09950  0.62150  Biso   1.000  C
  C17      1.0000 0.44370  0.40090  0.12090  Biso   1.000  C
  C18      1.0000 0.55630  0.40090  0.37910  Biso   1.000  C
  C19      1.0000 0.94370  0.90090  0.12090  Biso   1.000  C
  C20      1.0000 0.05630  0.90090  0.37910  Biso   1.000  C
  C21      1.0000 0.55630  0.59910  0.87910  Biso   1.000  C
  C22      1.0000 0.44370  0.59910  0.62090  Biso   1.000  C
  C23      1.0000 0.05630  0.09910  0.87910  Biso   1.000  C
  C24      1.0000 0.94370  0.09910  0.62090  Biso   1.000  C
  H1       1.0000 0.42150  0.45140  0.11530  Biso   1.000  H
  H2       1.0000 0.57850  0.45140  0.38470  Biso   1.000  H
  H3       1.0000 0.92150  0.95140  0.11530  Biso   1.000  H
  H4       1.0000 0.07850  0.95140  0.38470  Biso   1.000  H
  H5       1.0000 0.57850  0.54860  0.88470  Biso   1.000  H
  H6       1.0000 0.42150  0.54860  0.61530  Biso   1.000  H
  H7       1.0000 0.07850  0.04860  0.88470  Biso   1.000  H
  H8       1.0000 0.92150  0.04860  0.61530  Biso   1.000  H
  C25      1.0000 0.41640  0.32260  0.12910  Biso   1.000  C
  C26      1.0000 0.58360  0.32260  0.37090  Biso   1.000  C
  C27      1.0000 0.91640  0.82260  0.12910  Biso   1.000  C
  C28      1.0000 0.08360  0.82260  0.37090  Biso   1.000  C
  C29      1.0000 0.58360  0.67740  0.87090  Biso   1.000  C
  C30      1.0000 0.41640  0.67740  0.62910  Biso   1.000  C
  C31      1.0000 0.08360  0.17740  0.87090  Biso   1.000  C
  C32      1.0000 0.91640  0.17740  0.62910  Biso   1.000  C
  H9       1.0000 0.37500  0.32100  0.13050  Biso   1.000  H
  H10      1.0000 0.62500  0.32100  0.36950  Biso   1.000  H
  H11      1.0000 0.87500  0.82100  0.13050  Biso   1.000  H
  H12      1.0000 0.12500  0.82100  0.36950  Biso   1.000  H
  H13      1.0000 0.62500  0.67900  0.86950  Biso   1.000  H
  H14      1.0000 0.37500  0.67900  0.63050  Biso   1.000  H
  H15      1.0000 0.12500  0.17900  0.86950  Biso   1.000  H
  H16      1.0000 0.87500  0.17900  0.63050  Biso   1.000  H
  C33      1.0000 0.54130  0.48120  0.12710  Biso   1.000  C
  C34      1.0000 0.45870  0.48120  0.37290  Biso   1.000  C
  C35      1.0000 0.04130  0.98120  0.12710  Biso   1.000  C
  C36      1.0000 0.95870  0.98120  0.37290  Biso   1.000  C
  C37      1.0000 0.45870  0.51880  0.87290  Biso   1.000  C
  C38      1.0000 0.54130  0.51880  0.62710  Biso   1.000  C
  C39      1.0000 0.95870  0.01880  0.87290  Biso   1.000  C
  C40      1.0000 0.04130  0.01880  0.62710  Biso   1.000  C
  C41      1.0000 0.51470  0.56040  0.12730  Biso   1.000  C
  C42      1.0000 0.48530  0.56040  0.37270  Biso   1.000  C
  C43      1.0000 0.01470  0.06040  0.12730  Biso   1.000  C
  C44      1.0000 0.98530  0.06040  0.37270  Biso   1.000  C
  C45      1.0000 0.48530  0.43960  0.87270  Biso   1.000  C
  C46      1.0000 0.51470  0.43960  0.62730  Biso   1.000  C
  C47      1.0000 0.98530  0.93960  0.87270  Biso   1.000  C
  C48      1.0000 0.01470  0.93960  0.62730  Biso   1.000  C
  H17      1.0000 0.47290  0.56490  0.12200  Biso   1.000  H
  H18      1.0000 0.52710  0.56490  0.37800  Biso   1.000  H
  H19      1.0000 0.97290  0.06490  0.12200  Biso   1.000  H
  H20      1.0000 0.02710  0.06490  0.37800  Biso   1.000  H
  H21      1.0000 0.52710  0.43510  0.87800  Biso   1.000  H
  H22      1.0000 0.47290  0.43510  0.62200  Biso   1.000  H
  H23      1.0000 0.02710  0.93510  0.87800  Biso   1.000  H
  H24      1.0000 0.97290  0.93510  0.62200  Biso   1.000  H
  C49      1.0000 0.54930  0.63200  0.13530  Biso   1.000  C
  C50      1.0000 0.45070  0.63200  0.36470  Biso   1.000  C
  C51      1.0000 0.04930  0.13200  0.13530  Biso   1.000  C
  C52      1.0000 0.95070  0.13200  0.36470  Biso   1.000  C
  C53      1.0000 0.45070  0.36800  0.86470  Biso   1.000  C
  C54      1.0000 0.54930  0.36800  0.63530  Biso   1.000  C
  C55      1.0000 0.95070  0.86800  0.86470  Biso   1.000  C
  C56      1.0000 0.04930  0.86800  0.63530  Biso   1.000  C
  H25      1.0000 0.52990  0.68460  0.13360  Biso   1.000  H
  H26      1.0000 0.47010  0.68460  0.36640  Biso   1.000  H
  H27      1.0000 0.02990  0.18460  0.13360  Biso   1.000  H
  H28      1.0000 0.97010  0.18460  0.36640  Biso   1.000  H
  H29      1.0000 0.47010  0.31540  0.86640  Biso   1.000  H
  H30      1.0000 0.52990  0.31540  0.63360  Biso   1.000  H
  H31      1.0000 0.97010  0.81540  0.86640  Biso   1.000  H
  H32      1.0000 0.02990  0.81540  0.63360  Biso   1.000  H
  C57      1.0000 0.63360  0.55550  0.14260  Biso   1.000  C
  C58      1.0000 0.36640  0.55550  0.35740  Biso   1.000  C
  C59      1.0000 0.13360  0.05550  0.14260  Biso   1.000  C
  C60      1.0000 0.86640  0.05550  0.35740  Biso   1.000  C
  C61      1.0000 0.36640  0.44450  0.85740  Biso   1.000  C
  C62      1.0000 0.63360  0.44450  0.64260  Biso   1.000  C
  C63      1.0000 0.86640  0.94450  0.85740  Biso   1.000  C
  C64      1.0000 0.13360  0.94450  0.64260  Biso   1.000  C
  H33      1.0000 0.67540  0.55310  0.14640  Biso   1.000  H
  H34      1.0000 0.32460  0.55310  0.35360  Biso   1.000  H
  H35      1.0000 0.17540  0.05310  0.14640  Biso   1.000  H
  H36      1.0000 0.82460  0.05310  0.35360  Biso   1.000  H
  H37      1.0000 0.32460  0.44690  0.85360  Biso   1.000  H
  H38      1.0000 0.67540  0.44690  0.64640  Biso   1.000  H
  H39      1.0000 0.82460  0.94690  0.85360  Biso   1.000  H
  H40      1.0000 0.17540  0.94690  0.64640  Biso   1.000  H
  C65      1.0000 0.60180  0.47950  0.13450  Biso   1.000  C
  C66      1.0000 0.39820  0.47950  0.36550  Biso   1.000  C
  C67      1.0000 0.10180  0.97950  0.13450  Biso   1.000  C
  C68      1.0000 0.89820  0.97950  0.36550  Biso   1.000  C
  C69      1.0000 0.39820  0.52050  0.86550  Biso   1.000  C
  C70      1.0000 0.60180  0.52050  0.63450  Biso   1.000  C
  C71      1.0000 0.89820  0.02050  0.86550  Biso   1.000  C
  C72      1.0000 0.10180  0.02050  0.63450  Biso   1.000  C
  H41      1.0000 0.62210  0.42760  0.13420  Biso   1.000  H
  H42      1.0000 0.37790  0.42760  0.36580  Biso   1.000  H
  H43      1.0000 0.12210  0.92760  0.13420  Biso   1.000  H
  H44      1.0000 0.87790  0.92760  0.36580  Biso   1.000  H
  H45      1.0000 0.37790  0.57240  0.86580  Biso   1.000  H
  H46      1.0000 0.62210  0.57240  0.63420  Biso   1.000  H
  H47      1.0000 0.87790  0.07240  0.86580  Biso   1.000  H
  H48      1.0000 0.12210  0.07240  0.63420  Biso   1.000  H
  C73      1.0000 0.60540  0.94740  0.25290  Biso   1.000  C
  C74      1.0000 0.39460  0.94740  0.24710  Biso   1.000  C
  C75      1.0000 0.10540  0.44740  0.25290  Biso   1.000  C
  C76      1.0000 0.89460  0.44740  0.24710  Biso   1.000  C
  C77      1.0000 0.39460  0.05260  0.74710  Biso   1.000  C
  C78      1.0000 0.60540  0.05260  0.75290  Biso   1.000  C
  C79      1.0000 0.89460  0.55260  0.74710  Biso   1.000  C
  C80      1.0000 0.10540  0.55260  0.75290  Biso   1.000  C
  C81      1.0000 0.66100  0.84510  0.18290  Biso   1.000  C
  C82      1.0000 0.33900  0.84510  0.31710  Biso   1.000  C
  C83      1.0000 0.16100  0.34510  0.18290  Biso   1.000  C
  C84      1.0000 0.83900  0.34510  0.31710  Biso   1.000  C
  C85      1.0000 0.33900  0.15490  0.81710  Biso   1.000  C
  C86      1.0000 0.66100  0.15490  0.68290  Biso   1.000  C
  C87      1.0000 0.83900  0.65490  0.81710  Biso   1.000  C
  C88      1.0000 0.16100  0.65490  0.68290  Biso   1.000  C
  C89      1.0000 0.61900  0.84170  0.10160  Biso   1.000  C
  C90      1.0000 0.38100  0.84170  0.39840  Biso   1.000  C
  C91      1.0000 0.11900  0.34170  0.10160  Biso   1.000  C
  C92      1.0000 0.88100  0.34170  0.39840  Biso   1.000  C
  C93      1.0000 0.38100  0.15830  0.89840  Biso   1.000  C
  C94      1.0000 0.61900  0.15830  0.60160  Biso   1.000  C
  C95      1.0000 0.88100  0.65830  0.89840  Biso   1.000  C
  C96      1.0000 0.11900  0.65830  0.60160  Biso   1.000  C
  H49      1.0000 0.62300  0.80440  0.04960  Biso   1.000  H
  H50      1.0000 0.37700  0.80440  0.45040  Biso   1.000  H
  H51      1.0000 0.12300  0.30440  0.04960  Biso   1.000  H
  H52      1.0000 0.87700  0.30440  0.45040  Biso   1.000  H
  H53      1.0000 0.37700  0.19560  0.95040  Biso   1.000  H
  H54      1.0000 0.62300  0.19560  0.54960  Biso   1.000  H
  H55      1.0000 0.87700  0.69560  0.95040  Biso   1.000  H
  H56      1.0000 0.12300  0.69560  0.54960  Biso   1.000  H
  C97      1.0000 0.57040  0.89580  0.09940  Biso   1.000  C
  C98      1.0000 0.42960  0.89580  0.40060  Biso   1.000  C
  C99      1.0000 0.07040  0.39580  0.09940  Biso   1.000  C
  C100     1.0000 0.92960  0.39580  0.40060  Biso   1.000  C
  C101     1.0000 0.42960  0.10420  0.90060  Biso   1.000  C
  C102     1.0000 0.57040  0.10420  0.59940  Biso   1.000  C
  C103     1.0000 0.92960  0.60420  0.90060  Biso   1.000  C
  C104     1.0000 0.07040  0.60420  0.59940  Biso   1.000  C
  H57      1.0000 0.54120  0.89470  0.04430  Biso   1.000  H
  H58      1.0000 0.45880  0.89470  0.45570  Biso   1.000  H
  H59      1.0000 0.04120  0.39470  0.04430  Biso   1.000  H
  H60      1.0000 0.95880  0.39470  0.45570  Biso   1.000  H
  H61      1.0000 0.45880  0.10530  0.95570  Biso   1.000  H
  H62      1.0000 0.54120  0.10530  0.54430  Biso   1.000  H
  H63      1.0000 0.95880  0.60530  0.95570  Biso   1.000  H
  H64      1.0000 0.04120  0.60530  0.54430  Biso   1.000  H
  C105     1.0000 0.71690  0.79250  0.19370  Biso   1.000  C
  C106     1.0000 0.28310  0.79250  0.30630  Biso   1.000  C
  C107     1.0000 0.21690  0.29250  0.19370  Biso   1.000  C
  C108     1.0000 0.78310  0.29250  0.30630  Biso   1.000  C
  C109     1.0000 0.28310  0.20750  0.80630  Biso   1.000  C
  C110     1.0000 0.71690  0.20750  0.69370  Biso   1.000  C
  C111     1.0000 0.78310  0.70750  0.80630  Biso   1.000  C
  C112     1.0000 0.21690  0.70750  0.69370  Biso   1.000  C
  C113     1.0000 0.76030  0.80400  0.27240  Biso   1.000  C
  C114     1.0000 0.23970  0.80400  0.22760  Biso   1.000  C
  C115     1.0000 0.26030  0.30400  0.27240  Biso   1.000  C
  C116     1.0000 0.73970  0.30400  0.22760  Biso   1.000  C
  C117     1.0000 0.23970  0.19600  0.72760  Biso   1.000  C
  C118     1.0000 0.76030  0.19600  0.77240  Biso   1.000  C
  C119     1.0000 0.73970  0.69600  0.72760  Biso   1.000  C
  C120     1.0000 0.26030  0.69600  0.77240  Biso   1.000  C
  H65      1.0000 0.75470  0.84370  0.32130  Biso   1.000  H
  H66      1.0000 0.24530  0.84370  0.17870  Biso   1.000  H
  H67      1.0000 0.25470  0.34370  0.32130  Biso   1.000  H
  H68      1.0000 0.74530  0.34370  0.17870  Biso   1.000  H
  H69      1.0000 0.24530  0.15630  0.67870  Biso   1.000  H
  H70      1.0000 0.75470  0.15630  0.82130  Biso   1.000  H
  H71      1.0000 0.74530  0.65630  0.67870  Biso   1.000  H
  H72      1.0000 0.25470  0.65630  0.82130  Biso   1.000  H
  C121     1.0000 0.81270  0.75620  0.27930  Biso   1.000  C
  C122     1.0000 0.18730  0.75620  0.22070  Biso   1.000  C
  C123     1.0000 0.31270  0.25620  0.27930  Biso   1.000  C
  C124     1.0000 0.68730  0.25620  0.22070  Biso   1.000  C
  C125     1.0000 0.18730  0.24380  0.72070  Biso   1.000  C
  C126     1.0000 0.81270  0.24380  0.77930  Biso   1.000  C
  C127     1.0000 0.68730  0.74380  0.72070  Biso   1.000  C
  C128     1.0000 0.31270  0.74380  0.77930  Biso   1.000  C
  H73      1.0000 0.84200  0.76520  0.33320  Biso   1.000  H
  H74      1.0000 0.15800  0.76520  0.16680  Biso   1.000  H
  H75      1.0000 0.34200  0.26520  0.33320  Biso   1.000  H
  H76      1.0000 0.65800  0.26520  0.16680  Biso   1.000  H
  H77      1.0000 0.15800  0.23480  0.66680  Biso   1.000  H
  H78      1.0000 0.84200  0.23480  0.83320  Biso   1.000  H
  H79      1.0000 0.65800  0.73480  0.66680  Biso   1.000  H
  H80      1.0000 0.34200  0.73480  0.83320  Biso   1.000  H
  C129     1.0000 0.78040  0.68520  0.13760  Biso   1.000  C
  C130     1.0000 0.21960  0.68520  0.36240  Biso   1.000  C
  C131     1.0000 0.28040  0.18520  0.13760  Biso   1.000  C
  C132     1.0000 0.71960  0.18520  0.36240  Biso   1.000  C
  C133     1.0000 0.21960  0.31480  0.86240  Biso   1.000  C
  C134     1.0000 0.78040  0.31480  0.63760  Biso   1.000  C
  C135     1.0000 0.71960  0.81480  0.86240  Biso   1.000  C
  C136     1.0000 0.28040  0.81480  0.63760  Biso   1.000  C
  H81      1.0000 0.78650  0.64330  0.09140  Biso   1.000  H
  H82      1.0000 0.21350  0.64330  0.40860  Biso   1.000  H
  H83      1.0000 0.28650  0.14330  0.09140  Biso   1.000  H
  H84      1.0000 0.71350  0.14330  0.40860  Biso   1.000  H
  H85      1.0000 0.21350  0.35670  0.90860  Biso   1.000  H
  H86      1.0000 0.78650  0.35670  0.59140  Biso   1.000  H
  H87      1.0000 0.71350  0.85670  0.90860  Biso   1.000  H
  H88      1.0000 0.28650  0.85670  0.59140  Biso   1.000  H
  C137     1.0000 0.72700  0.73080  0.12390  Biso   1.000  C
  C138     1.0000 0.27300  0.73080  0.37610  Biso   1.000  C
  C139     1.0000 0.22700  0.23080  0.12390  Biso   1.000  C
  C140     1.0000 0.77300  0.23080  0.37610  Biso   1.000  C
  C141     1.0000 0.27300  0.26920  0.87610  Biso   1.000  C
  C142     1.0000 0.72700  0.26920  0.62390  Biso   1.000  C
  C143     1.0000 0.77300  0.76920  0.87610  Biso   1.000  C
  C144     1.0000 0.22700  0.76920  0.62390  Biso   1.000  C
  H89      1.0000 0.69840  0.72050  0.06930  Biso   1.000  H
  H90      1.0000 0.30160  0.72050  0.43070  Biso   1.000  H
  H91      1.0000 0.19840  0.22050  0.06930  Biso   1.000  H
  H92      1.0000 0.80160  0.22050  0.43070  Biso   1.000  H
  H93      1.0000 0.30160  0.27950  0.93070  Biso   1.000  H
  H94      1.0000 0.69840  0.27950  0.56930  Biso   1.000  H
  H95      1.0000 0.80160  0.77950  0.93070  Biso   1.000  H
  H96      1.0000 0.19840  0.77950  0.56930  Biso   1.000  H
  C145     1.0000 0.24320  0.00060  0.42050  Biso   1.000  C
  C146     1.0000 0.75680  0.00060  0.07950  Biso   1.000  C
  C147     1.0000 0.74320  0.50060  0.42050  Biso   1.000  C
  C148     1.0000 0.25680  0.50060  0.07950  Biso   1.000  C
  C149     1.0000 0.75680  0.99940  0.57950  Biso   1.000  C
  C150     1.0000 0.24320  0.99940  0.92050  Biso   1.000  C
  C151     1.0000 0.25680  0.49940  0.57950  Biso   1.000  C
  C152     1.0000 0.74320  0.49940  0.92050  Biso   1.000  C
  C153     1.0000 0.29040  0.06090  0.41670  Biso   1.000  C
  C154     1.0000 0.70960  0.06090  0.08330  Biso   1.000  C
  C155     1.0000 0.79040  0.56090  0.41670  Biso   1.000  C
  C156     1.0000 0.20960  0.56090  0.08330  Biso   1.000  C
  C157     1.0000 0.70960  0.93910  0.58330  Biso   1.000  C
  C158     1.0000 0.29040  0.93910  0.91670  Biso   1.000  C
  C159     1.0000 0.20960  0.43910  0.58330  Biso   1.000  C
  C160     1.0000 0.79040  0.43910  0.91670  Biso   1.000  C
  H97      1.0000 0.31210  0.06770  0.48180  Biso   1.000  H
  H98      1.0000 0.68790  0.06770  0.01820  Biso   1.000  H
  H99      1.0000 0.81210  0.56770  0.48180  Biso   1.000  H
  H100     1.0000 0.18790  0.56770  0.01820  Biso   1.000  H
  H101     1.0000 0.68790  0.93230  0.51820  Biso   1.000  H
  H102     1.0000 0.31210  0.93230  0.98180  Biso   1.000  H
  H103     1.0000 0.18790  0.43230  0.51820  Biso   1.000  H
  H104     1.0000 0.81210  0.43230  0.98180  Biso   1.000  H
  H105     1.0000 0.27360  0.11480  0.39370  Biso   1.000  H
  H106     1.0000 0.72640  0.11480  0.10630  Biso   1.000  H
  H107     1.0000 0.77360  0.61480  0.39370  Biso   1.000  H
  H108     1.0000 0.22640  0.61480  0.10630  Biso   1.000  H
  H109     1.0000 0.72640  0.88520  0.60630  Biso   1.000  H
  H110     1.0000 0.27360  0.88520  0.89370  Biso   1.000  H
  H111     1.0000 0.22640  0.38520  0.60630  Biso   1.000  H
  H112     1.0000 0.77360  0.38520  0.89370  Biso   1.000  H
  H113     1.0000 0.31740  0.04080  0.37210  Biso   1.000  H
  H114     1.0000 0.68260  0.04080  0.12790  Biso   1.000  H
  H115     1.0000 0.81740  0.54080  0.37210  Biso   1.000  H
  H116     1.0000 0.18260  0.54080  0.12790  Biso   1.000  H
  H117     1.0000 0.68260  0.95920  0.62790  Biso   1.000  H
  H118     1.0000 0.31740  0.95920  0.87210  Biso   1.000  H
  H119     1.0000 0.18260  0.45920  0.62790  Biso   1.000  H
  H120     1.0000 0.81740  0.45920  0.87210  Biso   1.000  H
  C161     1.0000 0.34800  0.29200  0.55200  Biso   1.000  C
  C162     1.0000 0.65200  0.29200  0.94800  Biso   1.000  C
  C163     1.0000 0.84800  0.79200  0.55200  Biso   1.000  C
  C164     1.0000 0.15200  0.79200  0.94800  Biso   1.000  C
  C165     1.0000 0.65200  0.70800  0.44800  Biso   1.000  C
  C166     1.0000 0.34800  0.70800  0.05200  Biso   1.000  C
  C167     1.0000 0.15200  0.20800  0.44800  Biso   1.000  C
  C168     1.0000 0.84800  0.20800  0.05200  Biso   1.000  C
  H121     1.0000 0.31290  0.25580  0.54710  Biso   1.000  H
  H122     1.0000 0.68710  0.25580  0.95290  Biso   1.000  H
  H123     1.0000 0.81290  0.75580  0.54710  Biso   1.000  H
  H124     1.0000 0.18710  0.75580  0.95290  Biso   1.000  H
  H125     1.0000 0.68710  0.74420  0.45290  Biso   1.000  H
  H126     1.0000 0.31290  0.74420  0.04710  Biso   1.000  H
  H127     1.0000 0.18710  0.24420  0.45290  Biso   1.000  H
  H128     1.0000 0.81290  0.24420  0.04710  Biso   1.000  H
  H129     1.0000 0.35710  0.30590  0.48710  Biso   1.000  H
  H130     1.0000 0.64290  0.30590  0.01290  Biso   1.000  H
  H131     1.0000 0.85710  0.80590  0.48710  Biso   1.000  H
  H132     1.0000 0.14290  0.80590  0.01290  Biso   1.000  H
  H133     1.0000 0.64290  0.69410  0.51290  Biso   1.000  H
  H134     1.0000 0.35710  0.69410  0.98710  Biso   1.000  H
  H135     1.0000 0.14290  0.19410  0.51290  Biso   1.000  H
  H136     1.0000 0.85710  0.19410  0.98710  Biso   1.000  H
  H137     1.0000 0.33900  0.34420  0.58580  Biso   1.000  H
  H138     1.0000 0.66100  0.34420  0.91420  Biso   1.000  H
  H139     1.0000 0.83900  0.84420  0.58580  Biso   1.000  H
  H140     1.0000 0.16100  0.84420  0.91420  Biso   1.000  H
  H141     1.0000 0.66100  0.65580  0.41420  Biso   1.000  H
  H142     1.0000 0.33900  0.65580  0.08580  Biso   1.000  H
  H143     1.0000 0.16100  0.15580  0.41420  Biso   1.000  H
  H144     1.0000 0.83900  0.15580  0.08580  Biso   1.000  H
  N1       1.0000 0.44710  0.24820  0.13510  Biso   1.000  N
  N2       1.0000 0.55290  0.24820  0.36490  Biso   1.000  N
  N3       1.0000 0.94710  0.74820  0.13510  Biso   1.000  N
  N4       1.0000 0.05290  0.74820  0.36490  Biso   1.000  N
  N5       1.0000 0.55290  0.75180  0.86490  Biso   1.000  N
  N6       1.0000 0.44710  0.75180  0.63510  Biso   1.000  N
  N7       1.0000 0.05290  0.25180  0.86490  Biso   1.000  N
  N8       1.0000 0.94710  0.25180  0.63510  Biso   1.000  N
  N9       1.0000 0.53630  0.32770  0.12160  Biso   1.000  N
  N10      1.0000 0.46370  0.32770  0.37840  Biso   1.000  N
  N11      1.0000 0.03630  0.82770  0.12160  Biso   1.000  N
  N12      1.0000 0.96370  0.82770  0.37840  Biso   1.000  N
  N13      1.0000 0.46370  0.67230  0.87840  Biso   1.000  N
  N14      1.0000 0.53630  0.67230  0.62160  Biso   1.000  N
  N15      1.0000 0.96370  0.17230  0.87840  Biso   1.000  N
  N16      1.0000 0.03630  0.17230  0.62160  Biso   1.000  N
  N17      1.0000 0.60770  0.63150  0.14520  Biso   1.000  N
  N18      1.0000 0.39230  0.63150  0.35480  Biso   1.000  N
  N19      1.0000 0.10770  0.13150  0.14520  Biso   1.000  N
  N20      1.0000 0.89230  0.13150  0.35480  Biso   1.000  N
  N21      1.0000 0.39230  0.36850  0.85480  Biso   1.000  N
  N22      1.0000 0.60770  0.36850  0.64520  Biso   1.000  N
  N23      1.0000 0.89230  0.86850  0.85480  Biso   1.000  N
  N24      1.0000 0.10770  0.86850  0.64520  Biso   1.000  N
  N25      1.0000 0.82310  0.69760  0.21200  Biso   1.000  N
  N26      1.0000 0.17690  0.69760  0.28800  Biso   1.000  N
  N27      1.0000 0.32310  0.19760  0.21200  Biso   1.000  N
  N28      1.0000 0.67690  0.19760  0.28800  Biso   1.000  N
  N29      1.0000 0.17690  0.30240  0.78800  Biso   1.000  N
  N30      1.0000 0.82310  0.30240  0.71200  Biso   1.000  N
  N31      1.0000 0.67690  0.80240  0.78800  Biso   1.000  N
  N32      1.0000 0.32310  0.80240  0.71200  Biso   1.000  N
  N33      1.0000 0.65470  0.89760  0.25980  Biso   1.000  N
  N34      1.0000 0.34530  0.89760  0.24020  Biso   1.000  N
  N35      1.0000 0.15470  0.39760  0.25980  Biso   1.000  N
  N36      1.0000 0.84530  0.39760  0.24020  Biso   1.000  N
  N37      1.0000 0.34530  0.10240  0.74020  Biso   1.000  N
  N38      1.0000 0.65470  0.10240  0.75980  Biso   1.000  N
  N39      1.0000 0.84530  0.60240  0.74020  Biso   1.000  N
  N40      1.0000 0.15470  0.60240  0.75980  Biso   1.000  N
  N41      1.0000 0.56340  0.95020  0.17360  Biso   1.000  N
  N42      1.0000 0.43660  0.95020  0.32640  Biso   1.000  N
  N43      1.0000 0.06340  0.45020  0.17360  Biso   1.000  N
  N44      1.0000 0.93660  0.45020  0.32640  Biso   1.000  N
  N45      1.0000 0.43660  0.04980  0.82640  Biso   1.000  N
  N46      1.0000 0.56340  0.04980  0.67360  Biso   1.000  N
  N47      1.0000 0.93660  0.54980  0.82640  Biso   1.000  N
  N48      1.0000 0.06340  0.54980  0.67360  Biso   1.000  N
  N49      1.0000 0.20930  0.94940  0.42350  Biso   1.000  N
  N50      1.0000 0.79070  0.94940  0.07650  Biso   1.000  N
  N51      1.0000 0.70930  0.44940  0.42350  Biso   1.000  N
  N52      1.0000 0.29070  0.44940  0.07650  Biso   1.000  N
  N53      1.0000 0.79070  0.05060  0.57650  Biso   1.000  N
  N54      1.0000 0.20930  0.05060  0.92350  Biso   1.000  N
  N55      1.0000 0.29070  0.55060  0.57650  Biso   1.000  N
  N56      1.0000 0.70930  0.55060  0.92350  Biso   1.000  N
  O1       1.0000 0.39480  0.25250  0.60400  Biso   1.000  O
  O2       1.0000 0.60520  0.25250  0.89600  Biso   1.000  O
  O3       1.0000 0.89480  0.75250  0.60400  Biso   1.000  O
  O4       1.0000 0.10520  0.75250  0.89600  Biso   1.000  O
  O5       1.0000 0.60520  0.74750  0.39600  Biso   1.000  O
  O6       1.0000 0.39480  0.74750  0.10400  Biso   1.000  O
  O7       1.0000 0.10520  0.24750  0.39600  Biso   1.000  O
  O8       1.0000 0.89480  0.24750  0.10400  Biso   1.000  O
  H145     1.0000 0.38090  0.20000  0.62990  Biso   1.000  H
  H146     1.0000 0.61910  0.20000  0.87010  Biso   1.000  H
  H147     1.0000 0.88090  0.70000  0.62990  Biso   1.000  H
  H148     1.0000 0.11910  0.70000  0.87010  Biso   1.000  H
  H149     1.0000 0.61910  0.80000  0.37010  Biso   1.000  H
  H150     1.0000 0.38090  0.80000  0.12990  Biso   1.000  H
  H151     1.0000 0.11910  0.30000  0.37010  Biso   1.000  H
  H152     1.0000 0.88090  0.30000  0.12990  Biso   1.000  H
  S1       1.0000 0.54969  0.16191  0.12151  Biso   1.000  S
  S2       1.0000 0.45031  0.16191  0.37849  Biso   1.000  S
  S3       1.0000 0.04969  0.66191  0.12151  Biso   1.000  S
  S4       1.0000 0.95031  0.66191  0.37849  Biso   1.000  S
  S5       1.0000 0.45031  0.83809  0.87849  Biso   1.000  S
  S6       1.0000 0.54969  0.83809  0.62151  Biso   1.000  S
  S7       1.0000 0.95031  0.33809  0.87849  Biso   1.000  S
  S8       1.0000 0.04969  0.33809  0.62151  Biso   1.000  S
  S9       1.0000 0.59829  0.01208  0.35544  Biso   1.000  S
  S10      1.0000 0.40171  0.01208  0.14456  Biso   1.000  S
  S11      1.0000 0.09829  0.51208  0.35544  Biso   1.000  S
  S12      1.0000 0.90171  0.51208  0.14456  Biso   1.000  S
  S13      1.0000 0.40171  0.98792  0.64456  Biso   1.000  S
  S14      1.0000 0.59829  0.98792  0.85544  Biso   1.000  S
  S15      1.0000 0.90171  0.48792  0.64456  Biso   1.000  S
  S16      1.0000 0.09829  0.48792  0.85544  Biso   1.000  S
