data_image0
_cell_length_a       7.5624
_cell_length_b       9.203
_cell_length_c       13.0017
_cell_angle_alpha    92.779
_cell_angle_beta     91.267
_cell_angle_gamma    90.871

_symmetry_space_group_name_H-M    "P 1"
_symmetry_int_tables_number       1

loop_
  _symmetry_equiv_pos_as_xyz
  'x, y, z'

loop_
  _atom_site_label
  _atom_site_occupancy
  _atom_site_fract_x
  _atom_site_fract_y
  _atom_site_fract_z
  _atom_site_thermal_displace_type
  _atom_site_B_iso_or_equiv
  _atom_site_type_symbol
  Cu1      1.0000 0.79334  0.70832  0.64025  Biso   1.000  Cu
  Cu2      1.0000 0.20666  0.29168  0.35975  Biso   1.000  Cu
  Cu3      1.0000 0.72334  0.73485  0.83103  Biso   1.000  Cu
  Cu4      1.0000 0.27666  0.26515  0.16897  Biso   1.000  Cu
  Cu5      1.0000 0.73896  0.05117  0.75295  Biso   1.000  Cu
  Cu6      1.0000 0.26104  0.94883  0.24705  Biso   1.000  Cu
  Br1      1.0000 0.78091  0.50437  0.74294  Biso   1.000  Br
  Br2      1.0000 0.21909  0.49563  0.25706  Biso   1.000  Br
  Br3      1.0000 0.98305  0.90391  0.83057  Biso   1.000  Br
  Br4      1.0000 0.01695  0.09609  0.16943  Biso   1.000  Br
  Br5      1.0000 0.52641  0.86234  0.66695  Biso   1.000  Br
  Br6      1.0000 0.47359  0.13766  0.33305  Biso   1.000  Br
  N1       1.0000 0.93190  0.76250  0.52230  Biso   1.000  N
  N2       1.0000 0.06810  0.23750  0.47770  Biso   1.000  N
  C1       1.0000 0.87030  0.75190  0.42460  Biso   1.000  C
  C2       1.0000 0.12970  0.24810  0.57540  Biso   1.000  C
  C3       1.0000 0.97020  0.80300  0.34620  Biso   1.000  C
  C4       1.0000 0.02980  0.19700  0.65380  Biso   1.000  C
  H1       1.0000 0.92410  0.79520  0.27920  Biso   1.000  H
  H2       1.0000 0.07590  0.20480  0.72080  Biso   1.000  H
  N3       1.0000 0.13190  0.86350  0.36290  Biso   1.000  N
  N4       1.0000 0.86810  0.13650  0.63710  Biso   1.000  N
  C5       1.0000 0.19290  0.87330  0.46000  Biso   1.000  C
  C6       1.0000 0.80710  0.12670  0.54000  Biso   1.000  C
  H3       1.0000 0.30450  0.91390  0.47460  Biso   1.000  H
  H4       1.0000 0.69550  0.08610  0.52540  Biso   1.000  H
  C7       1.0000 0.09320  0.82410  0.53900  Biso   1.000  C
  C8       1.0000 0.90680  0.17590  0.46100  Biso   1.000  C
  H5       1.0000 0.13880  0.83390  0.60610  Biso   1.000  H
  H6       1.0000 0.86120  0.16610  0.39390  Biso   1.000  H
  C9       1.0000 0.69370  0.67790  0.40240  Biso   1.000  C
  C10      1.0000 0.30630  0.32210  0.59760  Biso   1.000  C
  H7       1.0000 0.60970  0.71240  0.45290  Biso   1.000  H
  H8       1.0000 0.39030  0.28760  0.54710  Biso   1.000  H
  H9       1.0000 0.65000  0.70310  0.33490  Biso   1.000  H
  H10      1.0000 0.35000  0.29690  0.66510  Biso   1.000  H
  C11      1.0000 0.70690  0.51570  0.40520  Biso   1.000  C
  C12      1.0000 0.29310  0.48430  0.59480  Biso   1.000  C
  H11      1.0000 0.59230  0.47180  0.39140  Biso   1.000  H
  H12      1.0000 0.40770  0.52820  0.60860  Biso   1.000  H
  H13      1.0000 0.74900  0.49040  0.47210  Biso   1.000  H
  H14      1.0000 0.25100  0.50960  0.52790  Biso   1.000  H
  H15      1.0000 0.78770  0.48100  0.35400  Biso   1.000  H
  H16      1.0000 0.21230  0.51900  0.64600  Biso   1.000  H
  N5       1.0000 0.58430  0.77410  0.95740  Biso   1.000  N
  N6       1.0000 0.41570  0.22590  0.04260  Biso   1.000  N
  C13      1.0000 0.41880  0.72870  0.97060  Biso   1.000  C
  C14      1.0000 0.58120  0.27130  0.02940  Biso   1.000  C
  C15      1.0000 0.32980  0.77440  0.05840  Biso   1.000  C
  C16      1.0000 0.67020  0.22560  0.94160  Biso   1.000  C
  H17      1.0000 0.21390  0.74190  0.06570  Biso   1.000  H
  H18      1.0000 0.78610  0.25810  0.93430  Biso   1.000  H
  N7       1.0000 0.40170  0.86270  0.13290  Biso   1.000  N
  N8       1.0000 0.59830  0.13730  0.86710  Biso   1.000  N
  C17      1.0000 0.57000  0.90200  0.11930  Biso   1.000  C
  C18      1.0000 0.43000  0.09800  0.88070  Biso   1.000  C
  H19      1.0000 0.62800  0.96020  0.17030  Biso   1.000  H
  H20      1.0000 0.37200  0.03980  0.82970  Biso   1.000  H
  C19      1.0000 0.66050  0.85960  0.03270  Biso   1.000  C
  C20      1.0000 0.33950  0.14040  0.96730  Biso   1.000  C
  H21      1.0000 0.77700  0.89090  0.02620  Biso   1.000  H
  H22      1.0000 0.22300  0.10910  0.97380  Biso   1.000  H
  C21      1.0000 0.33620  0.62750  0.88920  Biso   1.000  C
  C22      1.0000 0.66380  0.37250  0.11080  Biso   1.000  C
  H23      1.0000 0.42730  0.56530  0.86100  Biso   1.000  H
  H24      1.0000 0.57270  0.43470  0.13900  Biso   1.000  H
  H25      1.0000 0.29120  0.68470  0.83400  Biso   1.000  H
  H26      1.0000 0.70880  0.31530  0.16600  Biso   1.000  H
  H27      1.0000 0.22370  0.66950  0.87080  Biso   1.000  H
  H28      1.0000 0.77630  0.33050  0.12920  Biso   1.000  H
  H29      1.0000 0.40980  0.63350  0.82940  Biso   1.000  H
  H30      1.0000 0.59020  0.36650  0.17060  Biso   1.000  H
  C23      1.0000 0.18850  0.53320  0.92480  Biso   1.000  C
  C24      1.0000 0.81150  0.46680  0.07520  Biso   1.000  C
  H31      1.0000 0.14280  0.47260  0.86780  Biso   1.000  H
  H32      1.0000 0.85720  0.52740  0.13220  Biso   1.000  H
  H33      1.0000 0.09590  0.59330  0.95160  Biso   1.000  H
  H34      1.0000 0.90410  0.40670  0.04840  Biso   1.000  H
  H35      1.0000 0.23210  0.47310  0.97780  Biso   1.000  H
  H36      1.0000 0.76790  0.52690  0.02220  Biso   1.000  H
  C25      1.0000 0.30400  0.48800  0.90000  Biso   1.000  C
  C26      1.0000 0.69600  0.51200  0.10000  Biso   1.000  C
  H37      1.0000 0.25390  0.44540  0.83670  Biso   1.000  H
  H38      1.0000 0.74610  0.55460  0.16330  Biso   1.000  H
  H39      1.0000 0.22260  0.47630  0.95440  Biso   1.000  H
  H40      1.0000 0.77740  0.52370  0.04560  Biso   1.000  H
  H41      1.0000 0.41270  0.44030  0.91590  Biso   1.000  H
  H42      1.0000 0.58730  0.55970  0.08410  Biso   1.000  H
