data_image0
_cell_length_a       3.9525
_cell_length_b       8.4106
_cell_length_c       14.6329
_cell_angle_alpha    92.423
_cell_angle_beta     90.73
_cell_angle_gamma    92.08

_symmetry_space_group_name_H-M    "P 1"
_symmetry_int_tables_number       1

loop_
  _symmetry_equiv_pos_as_xyz
  'x, y, z'

loop_
  _atom_site_label
  _atom_site_occupancy
  _atom_site_fract_x
  _atom_site_fract_y
  _atom_site_fract_z
  _atom_site_thermal_displace_type
  _atom_site_B_iso_or_equiv
  _atom_site_type_symbol
  Cu1      1.0000 0.60298  0.39028  0.75491  Biso   1.000  Cu
  Cu2      1.0000 0.39702  0.60972  0.24509  Biso   1.000  Cu
  Cu3      1.0000 0.04104  0.17482  0.83738  Biso   1.000  Cu
  Cu4      1.0000 0.95896  0.82518  0.16262  Biso   1.000  Cu
  Br1      1.0000 0.54016  0.28350  0.91869  Biso   1.000  Br
  Br2      1.0000 0.45984  0.71650  0.08131  Biso   1.000  Br
  Br3      1.0000 0.09980  0.27510  0.67385  Biso   1.000  Br
  Br4      1.0000 0.90020  0.72490  0.32615  Biso   1.000  Br
  N1       1.0000 0.71880  0.62410  0.77710  Biso   1.000  N
  N2       1.0000 0.28120  0.37590  0.22290  Biso   1.000  N
  C1       1.0000 0.67230  0.73500  0.71500  Biso   1.000  C
  C2       1.0000 0.32770  0.26500  0.28500  Biso   1.000  C
  C3       1.0000 0.77320  0.89020  0.73350  Biso   1.000  C
  C4       1.0000 0.22680  0.10980  0.26650  Biso   1.000  C
  H1       1.0000 0.73470  0.96410  0.68940  Biso   1.000  H
  H2       1.0000 0.26530  0.03590  0.31060  Biso   1.000  H
  N3       1.0000 0.92670  0.94140  0.81320  Biso   1.000  N
  N4       1.0000 0.07330  0.05860  0.18680  Biso   1.000  N
  C5       1.0000 0.97560  0.82860  0.87430  Biso   1.000  C
  C6       1.0000 0.02440  0.17140  0.12570  Biso   1.000  C
  H3       1.0000 0.08270  0.85750  0.92980  Biso   1.000  H
  H4       1.0000 0.91730  0.14250  0.07020  Biso   1.000  H
  C7       1.0000 0.87260  0.67310  0.85710  Biso   1.000  C
  C8       1.0000 0.12740  0.32690  0.14290  Biso   1.000  C
  H5       1.0000 0.90910  0.59930  0.90150  Biso   1.000  H
  H6       1.0000 0.09090  0.40070  0.09850  Biso   1.000  H
  C9       1.0000 0.51670  0.67900  0.62490  Biso   1.000  C
  C10      1.0000 0.48330  0.32100  0.37510  Biso   1.000  C
  H7       1.0000 0.30370  0.62300  0.63650  Biso   1.000  H
  H8       1.0000 0.69630  0.37700  0.36350  Biso   1.000  H
  H9       1.0000 0.66470  0.60280  0.59620  Biso   1.000  H
  H10      1.0000 0.33530  0.39720  0.40380  Biso   1.000  H
  C11      1.0000 0.44970  0.80690  0.55760  Biso   1.000  C
  C12      1.0000 0.55030  0.19310  0.44240  Biso   1.000  C
  H11      1.0000 0.35080  0.75860  0.50240  Biso   1.000  H
  H12      1.0000 0.64920  0.24140  0.49760  Biso   1.000  H
  H13      1.0000 0.65910  0.86150  0.54360  Biso   1.000  H
  H14      1.0000 0.34090  0.13850  0.45640  Biso   1.000  H
  H15      1.0000 0.29690  0.88150  0.58400  Biso   1.000  H
  H16      1.0000 0.70310  0.11850  0.41600  Biso   1.000  H
