data_image0
_cell_length_a       9.1065
_cell_length_b       8.6669
_cell_length_c       12.1998
_cell_angle_alpha    90
_cell_angle_beta     90
_cell_angle_gamma    90

_symmetry_space_group_name_H-M    "P 1"
_symmetry_int_tables_number       1

loop_
  _symmetry_equiv_pos_as_xyz
  'x, y, z'

loop_
  _atom_site_label
  _atom_site_occupancy
  _atom_site_fract_x
  _atom_site_fract_y
  _atom_site_fract_z
  _atom_site_thermal_displace_type
  _atom_site_B_iso_or_equiv
  _atom_site_type_symbol
  Cu1      1.0000 0.84000  0.75000  0.82890  Biso   1.000  Cu
  Cu2      1.0000 0.66000  0.25000  0.32890  Biso   1.000  Cu
  Cu3      1.0000 0.34000  0.75000  0.67110  Biso   1.000  Cu
  Cu4      1.0000 0.16000  0.25000  0.17110  Biso   1.000  Cu
  N1       1.0000 0.75120  0.75000  0.98480  Biso   1.000  N
  N2       1.0000 0.74880  0.25000  0.48480  Biso   1.000  N
  N3       1.0000 0.25120  0.75000  0.51520  Biso   1.000  N
  N4       1.0000 0.24880  0.25000  0.01520  Biso   1.000  N
  N5       1.0000 0.65340  0.75000  0.74900  Biso   1.000  N
  N6       1.0000 0.84660  0.25000  0.24900  Biso   1.000  N
  N7       1.0000 0.15340  0.75000  0.75100  Biso   1.000  N
  N8       1.0000 0.34660  0.25000  0.25100  Biso   1.000  N
  C1       1.0000 0.57430  0.75000  0.17200  Biso   1.000  C
  C2       1.0000 0.92570  0.25000  0.67200  Biso   1.000  C
  C3       1.0000 0.07430  0.75000  0.32800  Biso   1.000  C
  C4       1.0000 0.42570  0.25000  0.82800  Biso   1.000  C
  C5       1.0000 0.03630  0.75000  0.78280  Biso   1.000  C
  C6       1.0000 0.46370  0.25000  0.28280  Biso   1.000  C
  C7       1.0000 0.53630  0.75000  0.71720  Biso   1.000  C
  C8       1.0000 0.96370  0.25000  0.21720  Biso   1.000  C
  C9       1.0000 0.70900  0.61667  0.03070  Biso   1.000  C
  C10      1.0000 0.79100  0.38333  0.53070  Biso   1.000  C
  C11      1.0000 0.20900  0.88333  0.46930  Biso   1.000  C
  C12      1.0000 0.29100  0.11667  0.96930  Biso   1.000  C
  C13      1.0000 0.29100  0.38333  0.96930  Biso   1.000  C
  C14      1.0000 0.20900  0.61667  0.46930  Biso   1.000  C
  C15      1.0000 0.79100  0.11667  0.53070  Biso   1.000  C
  C16      1.0000 0.70900  0.88333  0.03070  Biso   1.000  C
  C17      1.0000 0.62110  0.61347  0.12300  Biso   1.000  C
  C18      1.0000 0.87890  0.38653  0.62300  Biso   1.000  C
  C19      1.0000 0.12110  0.88653  0.37700  Biso   1.000  C
  C20      1.0000 0.37890  0.11347  0.87700  Biso   1.000  C
  C21      1.0000 0.37890  0.38653  0.87700  Biso   1.000  C
  C22      1.0000 0.12110  0.61347  0.37700  Biso   1.000  C
  C23      1.0000 0.87890  0.11347  0.62300  Biso   1.000  C
  C24      1.0000 0.62110  0.88653  0.12300  Biso   1.000  C
  C25      1.0000 0.76200  0.47222  0.97730  Biso   1.000  C
  C26      1.0000 0.73800  0.52778  0.47730  Biso   1.000  C
  C27      1.0000 0.26200  0.02778  0.52270  Biso   1.000  C
  C28      1.0000 0.23800  0.97222  0.02270  Biso   1.000  C
  C29      1.0000 0.23800  0.52778  0.02270  Biso   1.000  C
  C30      1.0000 0.26200  0.47222  0.52270  Biso   1.000  C
  C31      1.0000 0.73800  0.97222  0.47730  Biso   1.000  C
  C32      1.0000 0.76200  0.02778  0.97730  Biso   1.000  C
  C33      1.0000 0.47890  0.75000  0.26980  Biso   1.000  C
  C34      1.0000 0.02110  0.25000  0.76980  Biso   1.000  C
  C35      1.0000 0.97890  0.75000  0.23020  Biso   1.000  C
  C36      1.0000 0.52110  0.25000  0.73020  Biso   1.000  C
  H1       1.0000 0.58940  0.51704  0.15372  Biso   1.000  H
  H2       1.0000 0.91060  0.48296  0.65372  Biso   1.000  H
  H3       1.0000 0.08940  0.98296  0.34628  Biso   1.000  H
  H4       1.0000 0.41060  0.01704  0.84628  Biso   1.000  H
  H5       1.0000 0.41060  0.48296  0.84628  Biso   1.000  H
  H6       1.0000 0.08940  0.51704  0.34628  Biso   1.000  H
  H7       1.0000 0.91060  0.01704  0.65372  Biso   1.000  H
  H8       1.0000 0.58940  0.98296  0.15372  Biso   1.000  H
  H9       1.0000 0.72457  0.38452  0.01639  Biso   1.000  H
  H10      1.0000 0.77543  0.61548  0.51639  Biso   1.000  H
  H11      1.0000 0.22457  0.11548  0.48361  Biso   1.000  H
  H12      1.0000 0.27543  0.88452  0.98361  Biso   1.000  H
  H13      1.0000 0.27543  0.61548  0.98361  Biso   1.000  H
  H14      1.0000 0.22457  0.38452  0.48361  Biso   1.000  H
  H15      1.0000 0.77543  0.88452  0.51639  Biso   1.000  H
  H16      1.0000 0.72457  0.11548  0.01639  Biso   1.000  H
  H17      1.0000 0.86743  0.47008  0.97835  Biso   1.000  H
  H18      1.0000 0.63257  0.52992  0.47835  Biso   1.000  H
  H19      1.0000 0.36743  0.02992  0.52165  Biso   1.000  H
  H20      1.0000 0.13257  0.97008  0.02165  Biso   1.000  H
  H21      1.0000 0.13257  0.52992  0.02165  Biso   1.000  H
  H22      1.0000 0.36743  0.47008  0.52165  Biso   1.000  H
  H23      1.0000 0.63257  0.97008  0.47835  Biso   1.000  H
  H24      1.0000 0.86743  0.02992  0.97835  Biso   1.000  H
  H25      1.0000 0.72816  0.46905  0.90282  Biso   1.000  H
  H26      1.0000 0.77184  0.53095  0.40282  Biso   1.000  H
  H27      1.0000 0.22816  0.03095  0.59718  Biso   1.000  H
  H28      1.0000 0.27184  0.96905  0.09718  Biso   1.000  H
  H29      1.0000 0.27184  0.53095  0.09718  Biso   1.000  H
  H30      1.0000 0.22816  0.46905  0.59718  Biso   1.000  H
  H31      1.0000 0.77184  0.96905  0.40282  Biso   1.000  H
  H32      1.0000 0.72816  0.03095  0.90282  Biso   1.000  H
  H33      1.0000 0.44801  0.84592  0.30169  Biso   1.000  H
  H34      1.0000 0.05199  0.15408  0.80169  Biso   1.000  H
  H35      1.0000 0.94801  0.65408  0.19831  Biso   1.000  H
  H36      1.0000 0.55199  0.34592  0.69831  Biso   1.000  H
  H37      1.0000 0.55199  0.15408  0.69831  Biso   1.000  H
  H38      1.0000 0.94801  0.84592  0.19831  Biso   1.000  H
  H39      1.0000 0.05199  0.34592  0.80169  Biso   1.000  H
  H40      1.0000 0.44801  0.65408  0.30169  Biso   1.000  H
