data_image0
_cell_length_a       15.778
_cell_length_b       10.478
_cell_length_c       17.913
_cell_angle_alpha    90
_cell_angle_beta     110.77
_cell_angle_gamma    90

_symmetry_space_group_name_H-M    "P 1"
_symmetry_int_tables_number       1

loop_
  _symmetry_equiv_pos_as_xyz
  'x, y, z'

loop_
  _atom_site_label
  _atom_site_occupancy
  _atom_site_fract_x
  _atom_site_fract_y
  _atom_site_fract_z
  _atom_site_thermal_displace_type
  _atom_site_B_iso_or_equiv
  _atom_site_type_symbol
  Cu1      1.0000 0.93519  0.17929  0.29742  Biso   1.000  Cu
  Cu2      1.0000 0.93519  0.32071  0.79742  Biso   1.000  Cu
  Cu3      1.0000 0.06481  0.82071  0.70258  Biso   1.000  Cu
  Cu4      1.0000 0.06481  0.67929  0.20258  Biso   1.000  Cu
  Cu5      1.0000 0.44605  0.63565  0.77205  Biso   1.000  Cu
  Cu6      1.0000 0.44605  0.86435  0.27205  Biso   1.000  Cu
  Cu7      1.0000 0.55395  0.36435  0.22795  Biso   1.000  Cu
  Cu8      1.0000 0.55395  0.13565  0.72795  Biso   1.000  Cu
  N1       1.0000 0.83030  0.25760  0.22100  Biso   1.000  N
  N2       1.0000 0.83030  0.24240  0.72100  Biso   1.000  N
  N3       1.0000 0.16970  0.74240  0.77900  Biso   1.000  N
  N4       1.0000 0.16970  0.75760  0.27900  Biso   1.000  N
  N5       1.0000 0.51680  0.56060  0.87490  Biso   1.000  N
  N6       1.0000 0.51680  0.93940  0.37490  Biso   1.000  N
  N7       1.0000 0.48320  0.43940  0.12510  Biso   1.000  N
  N8       1.0000 0.48320  0.06060  0.62510  Biso   1.000  N
  N9       1.0000 0.34390  0.72620  0.69840  Biso   1.000  N
  N10      1.0000 0.34390  0.77380  0.19840  Biso   1.000  N
  N11      1.0000 0.65610  0.27380  0.30160  Biso   1.000  N
  N12      1.0000 0.65610  0.22620  0.80160  Biso   1.000  N
  N13      1.0000 0.01170  0.07500  0.38410  Biso   1.000  N
  N14      1.0000 0.01170  0.42500  0.88410  Biso   1.000  N
  N15      1.0000 0.98830  0.92500  0.61590  Biso   1.000  N
  N16      1.0000 0.98830  0.57500  0.11590  Biso   1.000  N
  O1       1.0000 0.04860  0.31160  0.30440  Biso   1.000  O
  O2       1.0000 0.04860  0.18840  0.80440  Biso   1.000  O
  O3       1.0000 0.95140  0.68840  0.69560  Biso   1.000  O
  O4       1.0000 0.95140  0.81160  0.19560  Biso   1.000  O
  O5       1.0000 0.11810  0.19430  0.23660  Biso   1.000  O
  O6       1.0000 0.11810  0.30570  0.73660  Biso   1.000  O
  O7       1.0000 0.88190  0.80570  0.76340  Biso   1.000  O
  O8       1.0000 0.88190  0.69430  0.26340  Biso   1.000  O
  O9       1.0000 0.44010  0.33350  0.27140  Biso   1.000  O
  O10      1.0000 0.44010  0.16650  0.77140  Biso   1.000  O
  O11      1.0000 0.55990  0.66650  0.72860  Biso   1.000  O
  O12      1.0000 0.55990  0.83350  0.22860  Biso   1.000  O
  O13      1.0000 0.51000  0.46840  0.37390  Biso   1.000  O
  O14      1.0000 0.51000  0.03160  0.87390  Biso   1.000  O
  O15      1.0000 0.49000  0.53160  0.62610  Biso   1.000  O
  O16      1.0000 0.49000  0.96840  0.12610  Biso   1.000  O
  C1       1.0000 0.77400  0.19160  0.15820  Biso   1.000  C
  C2       1.0000 0.77400  0.30840  0.65820  Biso   1.000  C
  C3       1.0000 0.22600  0.80840  0.84180  Biso   1.000  C
  C4       1.0000 0.22600  0.69160  0.34180  Biso   1.000  C
  H1       1.0000 0.77930  0.10030  0.15910  Biso   1.000  H
  H2       1.0000 0.77930  0.39970  0.65910  Biso   1.000  H
  H3       1.0000 0.22070  0.89970  0.84090  Biso   1.000  H
  H4       1.0000 0.22070  0.60030  0.34090  Biso   1.000  H
  C5       1.0000 0.70870  0.24750  0.09320  Biso   1.000  C
  C6       1.0000 0.70870  0.25250  0.59320  Biso   1.000  C
  C7       1.0000 0.29130  0.75250  0.90680  Biso   1.000  C
  C8       1.0000 0.29130  0.74750  0.40680  Biso   1.000  C
  H5       1.0000 0.67240  0.19570  0.04930  Biso   1.000  H
  H6       1.0000 0.67240  0.30430  0.54930  Biso   1.000  H
  H7       1.0000 0.32760  0.80430  0.95070  Biso   1.000  H
  H8       1.0000 0.32760  0.69570  0.45070  Biso   1.000  H
  C9       1.0000 0.69720  0.37960  0.08980  Biso   1.000  C
  C10      1.0000 0.69720  0.12040  0.58980  Biso   1.000  C
  C11      1.0000 0.30280  0.62040  0.91020  Biso   1.000  C
  C12      1.0000 0.30280  0.87960  0.41020  Biso   1.000  C
  C13      1.0000 0.75190  0.44870  0.15610  Biso   1.000  C
  C14      1.0000 0.75190  0.05130  0.65610  Biso   1.000  C
  C15      1.0000 0.24810  0.55130  0.84390  Biso   1.000  C
  C16      1.0000 0.24810  0.94870  0.34390  Biso   1.000  C
  H9       1.0000 0.74540  0.53960  0.15740  Biso   1.000  H
  H10      1.0000 0.74540  0.96040  0.65740  Biso   1.000  H
  H11      1.0000 0.25460  0.46040  0.84260  Biso   1.000  H
  H12      1.0000 0.25460  0.03960  0.34260  Biso   1.000  H
  C17      1.0000 0.81620  0.38680  0.21960  Biso   1.000  C
  C18      1.0000 0.81620  0.11320  0.71960  Biso   1.000  C
  C19      1.0000 0.18380  0.61320  0.78040  Biso   1.000  C
  C20      1.0000 0.18380  0.88680  0.28040  Biso   1.000  C
  H13      1.0000 0.85300  0.43620  0.26450  Biso   1.000  H
  H14      1.0000 0.85300  0.06380  0.76450  Biso   1.000  H
  H15      1.0000 0.14700  0.56380  0.73550  Biso   1.000  H
  H16      1.0000 0.14700  0.93620  0.23550  Biso   1.000  H
  C21      1.0000 0.63230  0.44280  0.01650  Biso   1.000  C
  C22      1.0000 0.63230  0.05720  0.51650  Biso   1.000  C
  C23      1.0000 0.36770  0.55720  0.98350  Biso   1.000  C
  C24      1.0000 0.36770  0.94280  0.48350  Biso   1.000  C
  C25      1.0000 0.56020  0.37750  0.96240  Biso   1.000  C
  C26      1.0000 0.56020  0.12250  0.46240  Biso   1.000  C
  C27      1.0000 0.43980  0.62250  0.03760  Biso   1.000  C
  C28      1.0000 0.43980  0.87750  0.53760  Biso   1.000  C
  H17      1.0000 0.54720  0.29160  0.97350  Biso   1.000  H
  H18      1.0000 0.54720  0.20840  0.47350  Biso   1.000  H
  H19      1.0000 0.45280  0.70840  0.02650  Biso   1.000  H
  H20      1.0000 0.45280  0.79160  0.52650  Biso   1.000  H
  C29      1.0000 0.50440  0.43820  0.89290  Biso   1.000  C
  C30      1.0000 0.50440  0.06180  0.39290  Biso   1.000  C
  C31      1.0000 0.49560  0.56180  0.10710  Biso   1.000  C
  C32      1.0000 0.49560  0.93820  0.60710  Biso   1.000  C
  H21      1.0000 0.45480  0.39140  0.85600  Biso   1.000  H
  H22      1.0000 0.45480  0.10860  0.35600  Biso   1.000  H
  H23      1.0000 0.54520  0.60860  0.14400  Biso   1.000  H
  H24      1.0000 0.54520  0.89140  0.64400  Biso   1.000  H
  C33      1.0000 0.58680  0.62500  0.92760  Biso   1.000  C
  C34      1.0000 0.58680  0.87500  0.42760  Biso   1.000  C
  C35      1.0000 0.41320  0.37500  0.07240  Biso   1.000  C
  C36      1.0000 0.41320  0.12500  0.57240  Biso   1.000  C
  H25      1.0000 0.59760  0.71130  0.91530  Biso   1.000  H
  H26      1.0000 0.59760  0.78870  0.41530  Biso   1.000  H
  H27      1.0000 0.40240  0.28870  0.08470  Biso   1.000  H
  H28      1.0000 0.40240  0.21130  0.58470  Biso   1.000  H
  C37      1.0000 0.64470  0.56960  0.99800  Biso   1.000  C
  C38      1.0000 0.64470  0.93040  0.49800  Biso   1.000  C
  C39      1.0000 0.35530  0.43040  0.00200  Biso   1.000  C
  C40      1.0000 0.35530  0.06960  0.50200  Biso   1.000  C
  H29      1.0000 0.69280  0.61910  0.03460  Biso   1.000  H
  H30      1.0000 0.69280  0.88090  0.53460  Biso   1.000  H
  H31      1.0000 0.30720  0.38090  0.96540  Biso   1.000  H
  H32      1.0000 0.30720  0.11910  0.46540  Biso   1.000  H
  C41      1.0000 0.27860  0.66790  0.63850  Biso   1.000  C
  C42      1.0000 0.27860  0.83210  0.13850  Biso   1.000  C
  C43      1.0000 0.72140  0.33210  0.36150  Biso   1.000  C
  C44      1.0000 0.72140  0.16790  0.86150  Biso   1.000  C
  H33      1.0000 0.27740  0.57630  0.63820  Biso   1.000  H
  H34      1.0000 0.27740  0.92370  0.13820  Biso   1.000  H
  H35      1.0000 0.72260  0.42370  0.36180  Biso   1.000  H
  H36      1.0000 0.72260  0.07630  0.86180  Biso   1.000  H
  C45      1.0000 0.21030  0.73270  0.57840  Biso   1.000  C
  C46      1.0000 0.21030  0.76730  0.07840  Biso   1.000  C
  C47      1.0000 0.78970  0.26730  0.42160  Biso   1.000  C
  C48      1.0000 0.78970  0.23270  0.92160  Biso   1.000  C
  H37      1.0000 0.16440  0.68660  0.53730  Biso   1.000  H
  H38      1.0000 0.16440  0.81340  0.03730  Biso   1.000  H
  H39      1.0000 0.83560  0.31340  0.46270  Biso   1.000  H
  H40      1.0000 0.83560  0.18660  0.96270  Biso   1.000  H
  C49      1.0000 0.20810  0.86610  0.57780  Biso   1.000  C
  C50      1.0000 0.20810  0.63390  0.07780  Biso   1.000  C
  C51      1.0000 0.79190  0.13390  0.42220  Biso   1.000  C
  C52      1.0000 0.79190  0.36610  0.92220  Biso   1.000  C
  C53      1.0000 0.27360  0.92790  0.64090  Biso   1.000  C
  C54      1.0000 0.27360  0.57210  0.14090  Biso   1.000  C
  C55      1.0000 0.72640  0.07210  0.35910  Biso   1.000  C
  C56      1.0000 0.72640  0.42790  0.85910  Biso   1.000  C
  H41      1.0000 0.27290  0.01930  0.64430  Biso   1.000  H
  H42      1.0000 0.27290  0.48070  0.14430  Biso   1.000  H
  H43      1.0000 0.72710  0.98070  0.35570  Biso   1.000  H
  H44      1.0000 0.72710  0.51930  0.85570  Biso   1.000  H
  C57      1.0000 0.33990  0.85570  0.69890  Biso   1.000  C
  C58      1.0000 0.33990  0.64430  0.19890  Biso   1.000  C
  C59      1.0000 0.66010  0.14430  0.30110  Biso   1.000  C
  C60      1.0000 0.66010  0.35570  0.80110  Biso   1.000  C
  H45      1.0000 0.38530  0.90100  0.74090  Biso   1.000  H
  H46      1.0000 0.38530  0.59900  0.24090  Biso   1.000  H
  H47      1.0000 0.61470  0.09900  0.25910  Biso   1.000  H
  H48      1.0000 0.61470  0.40100  0.75910  Biso   1.000  H
  C61      1.0000 0.13860  0.93670  0.51130  Biso   1.000  C
  C62      1.0000 0.13860  0.56330  0.01130  Biso   1.000  C
  C63      1.0000 0.86140  0.06330  0.48870  Biso   1.000  C
  C64      1.0000 0.86140  0.43670  0.98870  Biso   1.000  C
  C65      1.0000 0.08960  0.87850  0.43880  Biso   1.000  C
  C66      1.0000 0.08960  0.62150  0.93880  Biso   1.000  C
  C67      1.0000 0.91040  0.12150  0.56120  Biso   1.000  C
  C68      1.0000 0.91040  0.37850  0.06120  Biso   1.000  C
  H49      1.0000 0.09760  0.78900  0.43200  Biso   1.000  H
  H50      1.0000 0.09760  0.71100  0.93200  Biso   1.000  H
  H51      1.0000 0.90240  0.21100  0.56800  Biso   1.000  H
  H52      1.0000 0.90240  0.28900  0.06800  Biso   1.000  H
  C69      1.0000 0.02850  0.94980  0.37820  Biso   1.000  C
  C70      1.0000 0.02850  0.55020  0.87820  Biso   1.000  C
  C71      1.0000 0.97150  0.05020  0.62180  Biso   1.000  C
  C72      1.0000 0.97150  0.44980  0.12180  Biso   1.000  C
  H53      1.0000 0.99670  0.90750  0.32860  Biso   1.000  H
  H54      1.0000 0.99670  0.59250  0.82860  Biso   1.000  H
  H55      1.0000 0.00330  0.09250  0.67140  Biso   1.000  H
  H56      1.0000 0.00330  0.40750  0.17140  Biso   1.000  H
  C73      1.0000 0.05920  0.13070  0.45540  Biso   1.000  C
  C74      1.0000 0.05920  0.36930  0.95540  Biso   1.000  C
  C75      1.0000 0.94080  0.86930  0.54460  Biso   1.000  C
  C76      1.0000 0.94080  0.63070  0.04460  Biso   1.000  C
  H57      1.0000 0.04760  0.21910  0.46220  Biso   1.000  H
  H58      1.0000 0.04760  0.28090  0.96220  Biso   1.000  H
  H59      1.0000 0.95240  0.78090  0.53780  Biso   1.000  H
  H60      1.0000 0.95240  0.71910  0.03780  Biso   1.000  H
  C77      1.0000 0.12120  0.06700  0.51850  Biso   1.000  C
  C78      1.0000 0.12120  0.43300  0.01850  Biso   1.000  C
  C79      1.0000 0.87880  0.93300  0.48150  Biso   1.000  C
  C80      1.0000 0.87880  0.56700  0.98150  Biso   1.000  C
  H61      1.0000 0.15270  0.11060  0.56770  Biso   1.000  H
  H62      1.0000 0.15270  0.38940  0.06770  Biso   1.000  H
  H63      1.0000 0.84730  0.88940  0.43230  Biso   1.000  H
  H64      1.0000 0.84730  0.61060  0.93230  Biso   1.000  H
  C81      1.0000 0.11690  0.27150  0.29140  Biso   1.000  C
  C82      1.0000 0.11690  0.22850  0.79140  Biso   1.000  C
  C83      1.0000 0.88310  0.72850  0.70860  Biso   1.000  C
  C84      1.0000 0.88310  0.77150  0.20860  Biso   1.000  C
  C85      1.0000 0.20970  0.32240  0.34440  Biso   1.000  C
  C86      1.0000 0.20970  0.17760  0.84440  Biso   1.000  C
  C87      1.0000 0.79030  0.67760  0.65560  Biso   1.000  C
  C88      1.0000 0.79030  0.82240  0.15560  Biso   1.000  C
  C89      1.0000 0.28480  0.32850  0.31780  Biso   1.000  C
  C90      1.0000 0.28480  0.17150  0.81780  Biso   1.000  C
  C91      1.0000 0.71520  0.67150  0.68220  Biso   1.000  C
  C92      1.0000 0.71520  0.82850  0.18220  Biso   1.000  C
  H65      1.0000 0.27720  0.29920  0.26510  Biso   1.000  H
  H66      1.0000 0.27720  0.20080  0.76510  Biso   1.000  H
  H67      1.0000 0.72280  0.70080  0.73490  Biso   1.000  H
  H68      1.0000 0.72280  0.79920  0.23490  Biso   1.000  H
  C93      1.0000 0.36760  0.37770  0.36670  Biso   1.000  C
  C94      1.0000 0.36760  0.12230  0.86670  Biso   1.000  C
  C95      1.0000 0.63240  0.62230  0.63330  Biso   1.000  C
  C96      1.0000 0.63240  0.87770  0.13330  Biso   1.000  C
  C97      1.0000 0.44660  0.39640  0.33510  Biso   1.000  C
  C98      1.0000 0.44660  0.10360  0.83510  Biso   1.000  C
  C99      1.0000 0.55340  0.60360  0.66490  Biso   1.000  C
  C100     1.0000 0.55340  0.89640  0.16490  Biso   1.000  C
  C101     1.0000 0.37640  0.41840  0.44410  Biso   1.000  C
  C102     1.0000 0.37640  0.08160  0.94410  Biso   1.000  C
  C103     1.0000 0.62360  0.58160  0.55590  Biso   1.000  C
  C104     1.0000 0.62360  0.91840  0.05590  Biso   1.000  C
  H69      1.0000 0.43360  0.45120  0.47880  Biso   1.000  H
  H70      1.0000 0.43360  0.04880  0.97880  Biso   1.000  H
  H71      1.0000 0.56640  0.54880  0.52120  Biso   1.000  H
  H72      1.0000 0.56640  0.95120  0.02120  Biso   1.000  H
  C105     1.0000 0.30430  0.41170  0.47160  Biso   1.000  C
  C106     1.0000 0.30430  0.08830  0.97160  Biso   1.000  C
  C107     1.0000 0.69570  0.58830  0.52840  Biso   1.000  C
  C108     1.0000 0.69570  0.91170  0.02840  Biso   1.000  C
  H73      1.0000 0.31220  0.44010  0.52460  Biso   1.000  H
  H74      1.0000 0.31220  0.05990  0.02460  Biso   1.000  H
  H75      1.0000 0.68780  0.55990  0.47540  Biso   1.000  H
  H76      1.0000 0.68780  0.94010  0.97540  Biso   1.000  H
  C109     1.0000 0.22110  0.36490  0.42140  Biso   1.000  C
  C110     1.0000 0.22110  0.13510  0.92140  Biso   1.000  C
  C111     1.0000 0.77890  0.63510  0.57860  Biso   1.000  C
  C112     1.0000 0.77890  0.86490  0.07860  Biso   1.000  C
  H77      1.0000 0.17130  0.35960  0.44020  Biso   1.000  H
  H78      1.0000 0.17130  0.14040  0.94020  Biso   1.000  H
  H79      1.0000 0.82870  0.64040  0.55980  Biso   1.000  H
  H80      1.0000 0.82870  0.85960  0.05980  Biso   1.000  H
  O17      1.0000 0.61370  0.59880  0.30370  Biso   1.000  O
  O18      1.0000 0.61370  0.90120  0.80370  Biso   1.000  O
  O19      1.0000 0.38630  0.40120  0.69630  Biso   1.000  O
  O20      1.0000 0.38630  0.09880  0.19630  Biso   1.000  O
  H81      1.0000 0.62430  0.68240  0.31450  Biso   1.000  H
  H82      1.0000 0.62430  0.81760  0.81450  Biso   1.000  H
  H83      1.0000 0.37570  0.31760  0.68550  Biso   1.000  H
  H84      1.0000 0.37570  0.18240  0.18550  Biso   1.000  H
  H85      1.0000 0.55820  0.58260  0.31600  Biso   1.000  H
  H86      1.0000 0.55820  0.91740  0.81600  Biso   1.000  H
  H87      1.0000 0.44180  0.41740  0.68400  Biso   1.000  H
  H88      1.0000 0.44180  0.08260  0.18400  Biso   1.000  H
  O21      1.0000 0.19590  0.15930  0.11660  Biso   1.000  O
  O22      1.0000 0.19590  0.34070  0.61660  Biso   1.000  O
  O23      1.0000 0.80410  0.84070  0.88340  Biso   1.000  O
  O24      1.0000 0.80410  0.65930  0.38340  Biso   1.000  O
  H89      1.0000 0.13600  0.11010  0.08660  Biso   1.000  H
  H90      1.0000 0.13600  0.38990  0.58660  Biso   1.000  H
  H91      1.0000 0.86400  0.88990  0.91340  Biso   1.000  H
  H92      1.0000 0.86400  0.61010  0.41340  Biso   1.000  H
  H93      1.0000 0.20360  0.17050  0.18120  Biso   1.000  H
  H94      1.0000 0.20360  0.32950  0.68120  Biso   1.000  H
  H95      1.0000 0.79640  0.82950  0.81880  Biso   1.000  H
  H96      1.0000 0.79640  0.67050  0.31880  Biso   1.000  H
  O25      1.0000 0.96300  0.06900  0.14510  Biso   1.000  O
  O26      1.0000 0.96300  0.43100  0.64510  Biso   1.000  O
  O27      1.0000 0.03700  0.93100  0.85490  Biso   1.000  O
  O28      1.0000 0.03700  0.56900  0.35490  Biso   1.000  O
  H97      1.0000 0.95150  0.07790  0.18050  Biso   1.000  H
  H98      1.0000 0.95150  0.42210  0.68050  Biso   1.000  H
  H99      1.0000 0.04850  0.92210  0.81950  Biso   1.000  H
  H100     1.0000 0.04850  0.57790  0.31950  Biso   1.000  H
  H101     1.0000 0.97660  0.97580  0.13700  Biso   1.000  H
  H102     1.0000 0.97660  0.52420  0.63700  Biso   1.000  H
  H103     1.0000 0.02340  0.02420  0.86300  Biso   1.000  H
  H104     1.0000 0.02340  0.47580  0.36300  Biso   1.000  H
  O29      1.0000 0.04900  0.46900  0.51900  Biso   1.000  O
  O30      1.0000 0.04900  0.03100  0.01900  Biso   1.000  O
  O31      1.0000 0.95100  0.53100  0.48100  Biso   1.000  O
  O32      1.0000 0.95100  0.96900  0.98100  Biso   1.000  O
  H105     1.0000 0.98300  0.42500  0.49200  Biso   1.000  H
  H106     1.0000 0.98300  0.07500  0.99200  Biso   1.000  H
  H107     1.0000 0.01700  0.57500  0.50800  Biso   1.000  H
  H108     1.0000 0.01700  0.92500  0.00800  Biso   1.000  H
