data_image0
_cell_length_a       14.5964
_cell_length_b       3.8222
_cell_length_c       14.1437
_cell_angle_alpha    90
_cell_angle_beta     106.612
_cell_angle_gamma    90

_symmetry_space_group_name_H-M    "P 1"
_symmetry_int_tables_number       1

loop_
  _symmetry_equiv_pos_as_xyz
  'x, y, z'

loop_
  _atom_site_label
  _atom_site_occupancy
  _atom_site_fract_x
  _atom_site_fract_y
  _atom_site_fract_z
  _atom_site_thermal_displace_type
  _atom_site_B_iso_or_equiv
  _atom_site_type_symbol
  Cu1      1.0000 0.42615  0.21220  0.73320  Biso   1.000  Cu
  Cu2      1.0000 0.57385  0.71220  0.76680  Biso   1.000  Cu
  Cu3      1.0000 0.57385  0.78780  0.26680  Biso   1.000  Cu
  Cu4      1.0000 0.42615  0.28780  0.23320  Biso   1.000  Cu
  Br1      1.0000 0.57601  0.20920  0.87799  Biso   1.000  Br
  Br2      1.0000 0.42399  0.70920  0.62201  Biso   1.000  Br
  Br3      1.0000 0.42399  0.79080  0.12201  Biso   1.000  Br
  Br4      1.0000 0.57601  0.29080  0.37799  Biso   1.000  Br
  N1       1.0000 0.31760  0.18500  0.79480  Biso   1.000  N
  N2       1.0000 0.68240  0.68500  0.70520  Biso   1.000  N
  N3       1.0000 0.68240  0.81500  0.20520  Biso   1.000  N
  N4       1.0000 0.31760  0.31500  0.29480  Biso   1.000  N
  C1       1.0000 0.32900  0.27500  0.88670  Biso   1.000  C
  C2       1.0000 0.67100  0.77500  0.61330  Biso   1.000  C
  C3       1.0000 0.67100  0.72500  0.11330  Biso   1.000  C
  C4       1.0000 0.32900  0.22500  0.38670  Biso   1.000  C
  H1       1.0000 0.39020  0.35670  0.92390  Biso   1.000  H
  H2       1.0000 0.60980  0.85670  0.57610  Biso   1.000  H
  H3       1.0000 0.60980  0.64330  0.07610  Biso   1.000  H
  H4       1.0000 0.39020  0.14330  0.42390  Biso   1.000  H
  C5       1.0000 0.25710  0.26100  0.93330  Biso   1.000  C
  C6       1.0000 0.74290  0.76100  0.56670  Biso   1.000  C
  C7       1.0000 0.74290  0.73900  0.06670  Biso   1.000  C
  C8       1.0000 0.25710  0.23900  0.43330  Biso   1.000  C
  H5       1.0000 0.26650  0.35070  0.99800  Biso   1.000  H
  H6       1.0000 0.73350  0.85070  0.50200  Biso   1.000  H
  H7       1.0000 0.73350  0.64930  0.00200  Biso   1.000  H
  H8       1.0000 0.26650  0.14930  0.49800  Biso   1.000  H
  C9       1.0000 0.17140  0.10900  0.88170  Biso   1.000  C
  C10      1.0000 0.82860  0.60900  0.61830  Biso   1.000  C
  C11      1.0000 0.82860  0.89100  0.11830  Biso   1.000  C
  C12      1.0000 0.17140  0.39100  0.38170  Biso   1.000  C
  C13      1.0000 0.15880  0.98700  0.78790  Biso   1.000  C
  C14      1.0000 0.84120  0.48700  0.71210  Biso   1.000  C
  C15      1.0000 0.84120  0.01300  0.21210  Biso   1.000  C
  C16      1.0000 0.15880  0.51300  0.28790  Biso   1.000  C
  H9       1.0000 0.10050  0.87870  0.75260  Biso   1.000  H
  H10      1.0000 0.89950  0.37870  0.74740  Biso   1.000  H
  H11      1.0000 0.89950  0.12130  0.24740  Biso   1.000  H
  H12      1.0000 0.10050  0.62130  0.25260  Biso   1.000  H
  C17      1.0000 0.23270  0.02400  0.74540  Biso   1.000  C
  C18      1.0000 0.76730  0.52400  0.75460  Biso   1.000  C
  C19      1.0000 0.76730  0.97600  0.25460  Biso   1.000  C
  C20      1.0000 0.23270  0.47600  0.24540  Biso   1.000  C
  H13      1.0000 0.22480  0.93650  0.68070  Biso   1.000  H
  H14      1.0000 0.77520  0.43650  0.81930  Biso   1.000  H
  H15      1.0000 0.77520  0.06350  0.31930  Biso   1.000  H
  H16      1.0000 0.22480  0.56350  0.18070  Biso   1.000  H
  C21      1.0000 0.09520  0.07500  0.93330  Biso   1.000  C
  C22      1.0000 0.90480  0.57500  0.56670  Biso   1.000  C
  C23      1.0000 0.90480  0.92500  0.06670  Biso   1.000  C
  C24      1.0000 0.09520  0.42500  0.43330  Biso   1.000  C
  O1       1.0000 0.01870  0.90800  0.88590  Biso   1.000  O
  O2       1.0000 0.98130  0.40800  0.61410  Biso   1.000  O
  O3       1.0000 0.98130  0.09200  0.11410  Biso   1.000  O
  O4       1.0000 0.01870  0.59200  0.38590  Biso   1.000  O
  H17      1.0000 0.98030  0.90150  0.92020  Biso   1.000  H
  H18      1.0000 0.01970  0.40150  0.57980  Biso   1.000  H
  H19      1.0000 0.01970  0.09850  0.07980  Biso   1.000  H
  H20      1.0000 0.98030  0.59850  0.42020  Biso   1.000  H
  O5       1.0000 0.10920  0.20100  0.01860  Biso   1.000  O
  O6       1.0000 0.89080  0.70100  0.48140  Biso   1.000  O
  O7       1.0000 0.89080  0.79900  0.98140  Biso   1.000  O
  O8       1.0000 0.10920  0.29900  0.51860  Biso   1.000  O
