data_image0
_cell_length_a       14.608
_cell_length_b       3.8614
_cell_length_c       14.219
_cell_angle_alpha    90
_cell_angle_beta     106.43
_cell_angle_gamma    90

_symmetry_space_group_name_H-M    "P 1"
_symmetry_int_tables_number       1

loop_
  _symmetry_equiv_pos_as_xyz
  'x, y, z'

loop_
  _atom_site_label
  _atom_site_occupancy
  _atom_site_fract_x
  _atom_site_fract_y
  _atom_site_fract_z
  _atom_site_thermal_displace_type
  _atom_site_B_iso_or_equiv
  _atom_site_type_symbol
  Cu1      1.0000 0.07494  0.20915  0.26646  Biso   1.000  Cu
  Cu2      1.0000 0.92506  0.70915  0.23354  Biso   1.000  Cu
  Cu3      1.0000 0.92506  0.79085  0.73354  Biso   1.000  Cu
  Cu4      1.0000 0.07494  0.29085  0.76646  Biso   1.000  Cu
  Br1      1.0000 0.92345  0.20449  0.12463  Biso   1.000  Br
  Br2      1.0000 0.07655  0.70449  0.37537  Biso   1.000  Br
  Br3      1.0000 0.07655  0.79551  0.87537  Biso   1.000  Br
  Br4      1.0000 0.92345  0.29551  0.62463  Biso   1.000  Br
  O1       1.0000 0.48100  0.92470  0.11220  Biso   1.000  O
  O2       1.0000 0.51900  0.42470  0.38780  Biso   1.000  O
  O3       1.0000 0.51900  0.07530  0.88780  Biso   1.000  O
  O4       1.0000 0.48100  0.57530  0.61220  Biso   1.000  O
  O5       1.0000 0.38900  0.18300  0.98040  Biso   1.000  O
  O6       1.0000 0.61100  0.68300  0.51960  Biso   1.000  O
  O7       1.0000 0.61100  0.81700  0.01960  Biso   1.000  O
  O8       1.0000 0.38900  0.31700  0.48040  Biso   1.000  O
  H1       1.0000 0.43540  0.14640  0.96020  Biso   1.000  H
  H2       1.0000 0.56460  0.64640  0.53980  Biso   1.000  H
  H3       1.0000 0.56460  0.85360  0.03980  Biso   1.000  H
  H4       1.0000 0.43540  0.35360  0.46020  Biso   1.000  H
  N1       1.0000 0.18280  0.17750  0.20460  Biso   1.000  N
  N2       1.0000 0.81720  0.67750  0.29540  Biso   1.000  N
  N3       1.0000 0.81720  0.82250  0.79540  Biso   1.000  N
  N4       1.0000 0.18280  0.32250  0.70460  Biso   1.000  N
  C1       1.0000 0.26680  0.03940  0.25170  Biso   1.000  C
  C2       1.0000 0.73320  0.53940  0.24830  Biso   1.000  C
  C3       1.0000 0.73320  0.96060  0.74830  Biso   1.000  C
  C4       1.0000 0.26680  0.46060  0.75170  Biso   1.000  C
  H5       1.0000 0.27560  0.96300  0.31560  Biso   1.000  H
  H6       1.0000 0.72440  0.46300  0.18440  Biso   1.000  H
  H7       1.0000 0.72440  0.03700  0.68440  Biso   1.000  H
  H8       1.0000 0.27560  0.53700  0.81560  Biso   1.000  H
  C5       1.0000 0.34150  0.00320  0.21090  Biso   1.000  C
  C6       1.0000 0.65850  0.50320  0.28910  Biso   1.000  C
  C7       1.0000 0.65850  0.99680  0.78910  Biso   1.000  C
  C8       1.0000 0.34150  0.49680  0.71090  Biso   1.000  C
  H9       1.0000 0.39920  0.90620  0.24670  Biso   1.000  H
  H10      1.0000 0.60080  0.40620  0.25330  Biso   1.000  H
  H11      1.0000 0.60080  0.09380  0.75330  Biso   1.000  H
  H12      1.0000 0.39920  0.59380  0.74670  Biso   1.000  H
  C9       1.0000 0.24220  0.25910  0.06560  Biso   1.000  C
  C10      1.0000 0.75780  0.75910  0.43440  Biso   1.000  C
  C11      1.0000 0.75780  0.74090  0.93440  Biso   1.000  C
  C12      1.0000 0.24220  0.24090  0.56560  Biso   1.000  C
  H13      1.0000 0.23160  0.33660  0.00150  Biso   1.000  H
  H14      1.0000 0.76840  0.83660  0.49850  Biso   1.000  H
  H15      1.0000 0.76840  0.66340  0.99850  Biso   1.000  H
  H16      1.0000 0.23160  0.16340  0.50150  Biso   1.000  H
  C13      1.0000 0.17180  0.28620  0.11280  Biso   1.000  C
  C14      1.0000 0.82820  0.78620  0.38720  Biso   1.000  C
  C15      1.0000 0.82820  0.71380  0.88720  Biso   1.000  C
  C16      1.0000 0.17180  0.21380  0.61280  Biso   1.000  C
  H17      1.0000 0.11380  0.38510  0.07890  Biso   1.000  H
  H18      1.0000 0.88620  0.88510  0.42110  Biso   1.000  H
  H19      1.0000 0.88620  0.61490  0.92110  Biso   1.000  H
  H20      1.0000 0.11380  0.11490  0.57890  Biso   1.000  H
  C17      1.0000 0.32850  0.11510  0.11560  Biso   1.000  C
  C18      1.0000 0.67150  0.61510  0.38440  Biso   1.000  C
  C19      1.0000 0.67150  0.88490  0.88440  Biso   1.000  C
  C20      1.0000 0.32850  0.38490  0.61560  Biso   1.000  C
  C21      1.0000 0.40540  0.07020  0.06690  Biso   1.000  C
  C22      1.0000 0.59460  0.57020  0.43310  Biso   1.000  C
  C23      1.0000 0.59460  0.92980  0.93310  Biso   1.000  C
  C24      1.0000 0.40540  0.42980  0.56690  Biso   1.000  C
