data_image0
_cell_length_a       9.295
_cell_length_b       9.541
_cell_length_c       13.486
_cell_angle_alpha    90
_cell_angle_beta     91.58
_cell_angle_gamma    90

_symmetry_space_group_name_H-M    "P 1"
_symmetry_int_tables_number       1

loop_
  _symmetry_equiv_pos_as_xyz
  'x, y, z'

loop_
  _atom_site_label
  _atom_site_occupancy
  _atom_site_fract_x
  _atom_site_fract_y
  _atom_site_fract_z
  _atom_site_thermal_displace_type
  _atom_site_B_iso_or_equiv
  _atom_site_type_symbol
  Cu1      1.0000 0.25100  0.01444  0.97736  Biso   1.000  Cu
  Cu2      1.0000 0.75100  0.48556  0.47736  Biso   1.000  Cu
  Cu3      1.0000 0.74900  0.98556  0.02264  Biso   1.000  Cu
  Cu4      1.0000 0.24900  0.51444  0.52264  Biso   1.000  Cu
  N1       1.0000 0.35280  0.85920  0.89990  Biso   1.000  N
  N2       1.0000 0.85280  0.64080  0.39990  Biso   1.000  N
  N3       1.0000 0.64720  0.14080  0.10010  Biso   1.000  N
  N4       1.0000 0.14720  0.35920  0.60010  Biso   1.000  N
  N5       1.0000 0.14130  0.18980  0.94160  Biso   1.000  N
  N6       1.0000 0.64130  0.31020  0.44160  Biso   1.000  N
  N7       1.0000 0.85870  0.81020  0.05840  Biso   1.000  N
  N8       1.0000 0.35870  0.68980  0.55840  Biso   1.000  N
  N9       1.0000 0.94900  0.04180  0.98560  Biso   1.000  N
  N10      1.0000 0.44900  0.45820  0.48560  Biso   1.000  N
  N11      1.0000 0.05100  0.95820  0.01440  Biso   1.000  N
  N12      1.0000 0.55100  0.54180  0.51440  Biso   1.000  N
  N13      1.0000 0.55030  0.96320  0.97860  Biso   1.000  N
  N14      1.0000 0.05030  0.53680  0.47860  Biso   1.000  N
  N15      1.0000 0.44970  0.03680  0.02140  Biso   1.000  N
  N16      1.0000 0.94970  0.46320  0.52140  Biso   1.000  N
  C1       1.0000 0.30190  0.75780  0.84470  Biso   1.000  C
  C2       1.0000 0.80190  0.74220  0.34470  Biso   1.000  C
  C3       1.0000 0.69810  0.24220  0.15530  Biso   1.000  C
  C4       1.0000 0.19810  0.25780  0.65530  Biso   1.000  C
  H1       1.0000 0.20320  0.75530  0.83190  Biso   1.000  H
  H2       1.0000 0.70320  0.74470  0.33190  Biso   1.000  H
  H3       1.0000 0.79680  0.24470  0.16810  Biso   1.000  H
  H4       1.0000 0.29680  0.25530  0.66810  Biso   1.000  H
  C5       1.0000 0.38570  0.65240  0.80350  Biso   1.000  C
  C6       1.0000 0.88570  0.84760  0.30350  Biso   1.000  C
  C7       1.0000 0.61430  0.34760  0.19650  Biso   1.000  C
  C8       1.0000 0.11430  0.15240  0.69650  Biso   1.000  C
  H5       1.0000 0.34180  0.58180  0.76590  Biso   1.000  H
  H6       1.0000 0.84180  0.91820  0.26590  Biso   1.000  H
  H7       1.0000 0.65820  0.41820  0.23410  Biso   1.000  H
  H8       1.0000 0.15820  0.08180  0.73410  Biso   1.000  H
  C9       1.0000 0.53240  0.65230  0.81800  Biso   1.000  C
  C10      1.0000 0.03240  0.84770  0.31800  Biso   1.000  C
  C11      1.0000 0.46760  0.34770  0.18200  Biso   1.000  C
  C12      1.0000 0.96760  0.15230  0.68200  Biso   1.000  C
  H9       1.0000 0.59000  0.58280  0.79130  Biso   1.000  H
  H10      1.0000 0.09000  0.91720  0.29130  Biso   1.000  H
  H11      1.0000 0.41000  0.41720  0.20870  Biso   1.000  H
  H12      1.0000 0.91000  0.08280  0.70870  Biso   1.000  H
  C13      1.0000 0.58980  0.75960  0.87370  Biso   1.000  C
  C14      1.0000 0.08980  0.74040  0.37370  Biso   1.000  C
  C15      1.0000 0.41020  0.24040  0.12630  Biso   1.000  C
  C16      1.0000 0.91020  0.25960  0.62630  Biso   1.000  C
  H13      1.0000 0.68870  0.76730  0.88450  Biso   1.000  H
  H14      1.0000 0.18870  0.73270  0.38450  Biso   1.000  H
  H15      1.0000 0.31130  0.23270  0.11550  Biso   1.000  H
  H16      1.0000 0.81130  0.26730  0.61550  Biso   1.000  H
  C17      1.0000 0.49440  0.85880  0.91470  Biso   1.000  C
  C18      1.0000 0.99440  0.64120  0.41470  Biso   1.000  C
  C19      1.0000 0.50560  0.14120  0.08530  Biso   1.000  C
  C20      1.0000 0.00560  0.35880  0.58530  Biso   1.000  C
  C21      1.0000 0.18570  0.31480  0.90950  Biso   1.000  C
  C22      1.0000 0.68570  0.18520  0.40950  Biso   1.000  C
  C23      1.0000 0.81430  0.68520  0.09050  Biso   1.000  C
  C24      1.0000 0.31430  0.81480  0.59050  Biso   1.000  C
  H17      1.0000 0.28420  0.32870  0.90360  Biso   1.000  H
  H18      1.0000 0.78420  0.17130  0.40360  Biso   1.000  H
  H19      1.0000 0.71580  0.67130  0.09640  Biso   1.000  H
  H20      1.0000 0.21580  0.82870  0.59640  Biso   1.000  H
  C25      1.0000 0.09630  0.42290  0.88490  Biso   1.000  C
  C26      1.0000 0.59630  0.07710  0.38490  Biso   1.000  C
  C27      1.0000 0.90370  0.57710  0.11510  Biso   1.000  C
  C28      1.0000 0.40370  0.92290  0.61510  Biso   1.000  C
  H21      1.0000 0.13230  0.50940  0.86550  Biso   1.000  H
  H22      1.0000 0.63230  0.99060  0.36550  Biso   1.000  H
  H23      1.0000 0.86770  0.49060  0.13450  Biso   1.000  H
  H24      1.0000 0.36770  0.00940  0.63450  Biso   1.000  H
  C29      1.0000 0.94770  0.39930  0.88970  Biso   1.000  C
  C30      1.0000 0.44770  0.10070  0.38970  Biso   1.000  C
  C31      1.0000 0.05230  0.60070  0.11030  Biso   1.000  C
  C32      1.0000 0.55230  0.89930  0.61030  Biso   1.000  C
  H25      1.0000 0.88290  0.46870  0.86960  Biso   1.000  H
  H26      1.0000 0.38290  0.03130  0.36960  Biso   1.000  H
  H27      1.0000 0.11710  0.53130  0.13040  Biso   1.000  H
  H28      1.0000 0.61710  0.96870  0.63040  Biso   1.000  H
  C33      1.0000 0.99720  0.17130  0.95110  Biso   1.000  C
  C34      1.0000 0.49720  0.32870  0.45110  Biso   1.000  C
  C35      1.0000 0.00280  0.82870  0.04890  Biso   1.000  C
  C36      1.0000 0.50280  0.67130  0.54890  Biso   1.000  C
  C37      1.0000 0.89770  0.27190  0.92460  Biso   1.000  C
  C38      1.0000 0.39770  0.22810  0.42460  Biso   1.000  C
  C39      1.0000 0.10230  0.72810  0.07540  Biso   1.000  C
  C40      1.0000 0.60230  0.77190  0.57540  Biso   1.000  C
  H29      1.0000 0.79960  0.25510  0.92990  Biso   1.000  H
  H30      1.0000 0.29960  0.24490  0.42990  Biso   1.000  H
  H31      1.0000 0.20040  0.74490  0.07010  Biso   1.000  H
  H32      1.0000 0.70040  0.75510  0.57010  Biso   1.000  H
  F1       1.0000 0.16770  0.36890  0.28040  Biso   1.000  F
  F2       1.0000 0.66770  0.13110  0.78040  Biso   1.000  F
  F3       1.0000 0.83230  0.63110  0.71960  Biso   1.000  F
  F4       1.0000 0.33230  0.86890  0.21960  Biso   1.000  F
  F5       1.0000 0.92470  0.35960  0.29680  Biso   1.000  F
  F6       1.0000 0.42470  0.14040  0.79680  Biso   1.000  F
  F7       1.0000 0.07530  0.64040  0.70320  Biso   1.000  F
  F8       1.0000 0.57530  0.85960  0.20320  Biso   1.000  F
  F9       1.0000 0.06200  0.19150  0.36700  Biso   1.000  F
  F10      1.0000 0.56200  0.30850  0.86700  Biso   1.000  F
  F11      1.0000 0.93800  0.80850  0.63300  Biso   1.000  F
  F12      1.0000 0.43800  0.69150  0.13300  Biso   1.000  F
  F13      1.0000 0.04610  0.20390  0.19920  Biso   1.000  F
  F14      1.0000 0.54610  0.29610  0.69920  Biso   1.000  F
  F15      1.0000 0.95390  0.79610  0.80080  Biso   1.000  F
  F16      1.0000 0.45390  0.70390  0.30080  Biso   1.000  F
  B1       1.0000 0.05030  0.27450  0.28590  Biso   1.000  B
  B2       1.0000 0.55030  0.22550  0.78590  Biso   1.000  B
  B3       1.0000 0.94970  0.72550  0.71410  Biso   1.000  B
  B4       1.0000 0.44970  0.77450  0.21410  Biso   1.000  B
