data_image0
_cell_length_a       12.4821
_cell_length_b       25.0668
_cell_length_c       15.0517
_cell_angle_alpha    90
_cell_angle_beta     109.987
_cell_angle_gamma    90

_symmetry_space_group_name_H-M    "P 1"
_symmetry_int_tables_number       1

loop_
  _symmetry_equiv_pos_as_xyz
  'x, y, z'

loop_
  _atom_site_label
  _atom_site_occupancy
  _atom_site_fract_x
  _atom_site_fract_y
  _atom_site_fract_z
  _atom_site_thermal_displace_type
  _atom_site_B_iso_or_equiv
  _atom_site_type_symbol
  Cu1      1.0000 0.04034  0.54437  0.25746  Biso   1.000  Cu
  Cu2      1.0000 0.45966  0.04437  0.24254  Biso   1.000  Cu
  Cu3      1.0000 0.95966  0.45563  0.74254  Biso   1.000  Cu
  Cu4      1.0000 0.54034  0.95563  0.75746  Biso   1.000  Cu
  Cu5      1.0000 0.54245  0.55116  0.25289  Biso   1.000  Cu
  Cu6      1.0000 0.95755  0.05116  0.24711  Biso   1.000  Cu
  Cu7      1.0000 0.45755  0.44884  0.74711  Biso   1.000  Cu
  Cu8      1.0000 0.04245  0.94884  0.75289  Biso   1.000  Cu
  N1       1.0000 0.93417  0.50040  0.28528  Biso   1.000  N
  N2       1.0000 0.56583  0.00040  0.21472  Biso   1.000  N
  N3       1.0000 0.06583  0.49960  0.71472  Biso   1.000  N
  N4       1.0000 0.43417  0.99960  0.78528  Biso   1.000  N
  N5       1.0000 0.95960  0.42563  0.20183  Biso   1.000  N
  N6       1.0000 0.54040  0.92563  0.29817  Biso   1.000  N
  N7       1.0000 0.04040  0.57437  0.79817  Biso   1.000  N
  N8       1.0000 0.45960  0.07437  0.70183  Biso   1.000  N
  N9       1.0000 0.88063  0.41169  0.31247  Biso   1.000  N
  N10      1.0000 0.61937  0.91169  0.18753  Biso   1.000  N
  N11      1.0000 0.11937  0.58831  0.68753  Biso   1.000  N
  N12      1.0000 0.38063  0.08831  0.81247  Biso   1.000  N
  N13      1.0000 0.14205  0.58887  0.22547  Biso   1.000  N
  N14      1.0000 0.35795  0.08887  0.27453  Biso   1.000  N
  N15      1.0000 0.85795  0.41113  0.77453  Biso   1.000  N
  N16      1.0000 0.64205  0.91113  0.72547  Biso   1.000  N
  N17      1.0000 0.16320  0.67687  0.17121  Biso   1.000  N
  N18      1.0000 0.33680  0.17687  0.32879  Biso   1.000  N
  N19      1.0000 0.83680  0.32313  0.82879  Biso   1.000  N
  N20      1.0000 0.66320  0.82313  0.67121  Biso   1.000  N
  N21      1.0000 0.09730  0.66688  0.29120  Biso   1.000  N
  N22      1.0000 0.40270  0.16688  0.20880  Biso   1.000  N
  N23      1.0000 0.90270  0.33312  0.70880  Biso   1.000  N
  N24      1.0000 0.59730  0.83312  0.79120  Biso   1.000  N
  N25      1.0000 0.44873  0.57904  0.31589  Biso   1.000  N
  N26      1.0000 0.05127  0.07904  0.18411  Biso   1.000  N
  N27      1.0000 0.55127  0.42096  0.68411  Biso   1.000  N
  N28      1.0000 0.94873  0.92096  0.81589  Biso   1.000  N
  N29      1.0000 0.43240  0.64234  0.43010  Biso   1.000  N
  N30      1.0000 0.06760  0.14234  0.06990  Biso   1.000  N
  N31      1.0000 0.56760  0.35766  0.56990  Biso   1.000  N
  N32      1.0000 0.93240  0.85766  0.93010  Biso   1.000  N
  N33      1.0000 0.49950  0.66929  0.31793  Biso   1.000  N
  N34      1.0000 0.00050  0.16929  0.18207  Biso   1.000  N
  N35      1.0000 0.50050  0.33071  0.68207  Biso   1.000  N
  N36      1.0000 0.99950  0.83071  0.81793  Biso   1.000  N
  N37      1.0000 0.63512  0.52345  0.18859  Biso   1.000  N
  N38      1.0000 0.86488  0.02345  0.31141  Biso   1.000  N
  N39      1.0000 0.36488  0.47655  0.81141  Biso   1.000  N
  N40      1.0000 0.13512  0.97655  0.68859  Biso   1.000  N
  N41      1.0000 0.56970  0.43474  0.17480  Biso   1.000  N
  N42      1.0000 0.93030  0.93474  0.32520  Biso   1.000  N
  N43      1.0000 0.43030  0.56526  0.82520  Biso   1.000  N
  N44      1.0000 0.06970  0.06526  0.67480  Biso   1.000  N
  N45      1.0000 0.65407  0.46110  0.07351  Biso   1.000  N
  N46      1.0000 0.84593  0.96110  0.42649  Biso   1.000  N
  N47      1.0000 0.34593  0.53890  0.92649  Biso   1.000  N
  N48      1.0000 0.15407  0.03890  0.57351  Biso   1.000  N
  C1       1.0000 0.92520  0.44947  0.26870  Biso   1.000  C
  C2       1.0000 0.57480  0.94947  0.23130  Biso   1.000  C
  C3       1.0000 0.07480  0.55053  0.73130  Biso   1.000  C
  C4       1.0000 0.42520  0.05053  0.76870  Biso   1.000  C
  C5       1.0000 0.96420  0.45382  0.11870  Biso   1.000  C
  C6       1.0000 0.53580  0.95382  0.38130  Biso   1.000  C
  C7       1.0000 0.03580  0.54618  0.88130  Biso   1.000  C
  C8       1.0000 0.46420  0.04618  0.61870  Biso   1.000  C
  H1       1.0000 0.88660  0.45880  0.07390  Biso   1.000  H
  H2       1.0000 0.61340  0.95880  0.42610  Biso   1.000  H
  H3       1.0000 0.11340  0.54120  0.92610  Biso   1.000  H
  H4       1.0000 0.38660  0.04120  0.57390  Biso   1.000  H
  H5       1.0000 0.00880  0.43300  0.08860  Biso   1.000  H
  H6       1.0000 0.49120  0.93300  0.41140  Biso   1.000  H
  H7       1.0000 0.99120  0.56700  0.91140  Biso   1.000  H
  H8       1.0000 0.50880  0.06700  0.58860  Biso   1.000  H
  H9       1.0000 0.00020  0.48870  0.13750  Biso   1.000  H
  H10      1.0000 0.49980  0.98870  0.36250  Biso   1.000  H
  H11      1.0000 0.99980  0.51130  0.86250  Biso   1.000  H
  H12      1.0000 0.50020  0.01130  0.63750  Biso   1.000  H
  C9       1.0000 0.91770  0.37051  0.18700  Biso   1.000  C
  C10      1.0000 0.58230  0.87051  0.31300  Biso   1.000  C
  C11      1.0000 0.08230  0.62949  0.81300  Biso   1.000  C
  C12      1.0000 0.41770  0.12949  0.68700  Biso   1.000  C
  H13      1.0000 0.97520  0.34620  0.17740  Biso   1.000  H
  H14      1.0000 0.52480  0.84620  0.32260  Biso   1.000  H
  H15      1.0000 0.02480  0.65380  0.82260  Biso   1.000  H
  H16      1.0000 0.47520  0.15380  0.67740  Biso   1.000  H
  H17      1.0000 0.84610  0.36780  0.13210  Biso   1.000  H
  H18      1.0000 0.65390  0.86780  0.36790  Biso   1.000  H
  H19      1.0000 0.15390  0.63220  0.86790  Biso   1.000  H
  H20      1.0000 0.34610  0.13220  0.63210  Biso   1.000  H
  C13      1.0000 0.89770  0.35857  0.27830  Biso   1.000  C
  C14      1.0000 0.60230  0.85857  0.22170  Biso   1.000  C
  C15      1.0000 0.10230  0.64143  0.72170  Biso   1.000  C
  C16      1.0000 0.39770  0.14143  0.77830  Biso   1.000  C
  H21      1.0000 0.82950  0.33590  0.26720  Biso   1.000  H
  H22      1.0000 0.67050  0.83590  0.23280  Biso   1.000  H
  H23      1.0000 0.17050  0.66410  0.73280  Biso   1.000  H
  H24      1.0000 0.32950  0.16410  0.76720  Biso   1.000  H
  H25      1.0000 0.96460  0.34050  0.32390  Biso   1.000  H
  H26      1.0000 0.53540  0.84050  0.17610  Biso   1.000  H
  H27      1.0000 0.03540  0.65950  0.67610  Biso   1.000  H
  H28      1.0000 0.46460  0.15950  0.82390  Biso   1.000  H
  C17      1.0000 0.89800  0.41418  0.41400  Biso   1.000  C
  C18      1.0000 0.60200  0.91418  0.08600  Biso   1.000  C
  C19      1.0000 0.10200  0.58582  0.58600  Biso   1.000  C
  C20      1.0000 0.39800  0.08582  0.91400  Biso   1.000  C
  H29      1.0000 0.94650  0.44480  0.44220  Biso   1.000  H
  H30      1.0000 0.55350  0.94480  0.05780  Biso   1.000  H
  H31      1.0000 0.05350  0.55520  0.55780  Biso   1.000  H
  H32      1.0000 0.44650  0.05520  0.94220  Biso   1.000  H
  H33      1.0000 0.93500  0.38130  0.44470  Biso   1.000  H
  H34      1.0000 0.56500  0.88130  0.05530  Biso   1.000  H
  H35      1.0000 0.06500  0.61870  0.55530  Biso   1.000  H
  H36      1.0000 0.43500  0.11870  0.94470  Biso   1.000  H
  H37      1.0000 0.82420  0.41810  0.42280  Biso   1.000  H
  H38      1.0000 0.67580  0.91810  0.07720  Biso   1.000  H
  H39      1.0000 0.17580  0.58190  0.57720  Biso   1.000  H
  H40      1.0000 0.32420  0.08190  0.92280  Biso   1.000  H
  C21      1.0000 0.13520  0.64082  0.22769  Biso   1.000  C
  C22      1.0000 0.36480  0.14082  0.27231  Biso   1.000  C
  C23      1.0000 0.86480  0.35918  0.77231  Biso   1.000  C
  C24      1.0000 0.63520  0.85918  0.72769  Biso   1.000  C
  C25      1.0000 0.14010  0.66712  0.07050  Biso   1.000  C
  C26      1.0000 0.35990  0.16712  0.42950  Biso   1.000  C
  C27      1.0000 0.85990  0.33288  0.92950  Biso   1.000  C
  C28      1.0000 0.64010  0.83288  0.57050  Biso   1.000  C
  H41      1.0000 0.12760  0.62890  0.05740  Biso   1.000  H
  H42      1.0000 0.37240  0.12890  0.44260  Biso   1.000  H
  H43      1.0000 0.87240  0.37110  0.94260  Biso   1.000  H
  H44      1.0000 0.62760  0.87110  0.55740  Biso   1.000  H
  H45      1.0000 0.20530  0.67900  0.05350  Biso   1.000  H
  H46      1.0000 0.29470  0.17900  0.44650  Biso   1.000  H
  H47      1.0000 0.79470  0.32100  0.94650  Biso   1.000  H
  H48      1.0000 0.70530  0.82100  0.55350  Biso   1.000  H
  H49      1.0000 0.07180  0.68690  0.03330  Biso   1.000  H
  H50      1.0000 0.42820  0.18690  0.46670  Biso   1.000  H
  H51      1.0000 0.92820  0.31310  0.96670  Biso   1.000  H
  H52      1.0000 0.57180  0.81310  0.53330  Biso   1.000  H
  C29      1.0000 0.13180  0.73063  0.19310  Biso   1.000  C
  C30      1.0000 0.36820  0.23063  0.30690  Biso   1.000  C
  C31      1.0000 0.86820  0.26937  0.80690  Biso   1.000  C
  C32      1.0000 0.63180  0.76937  0.69310  Biso   1.000  C
  H53      1.0000 0.05800  0.74210  0.14660  Biso   1.000  H
  H54      1.0000 0.44200  0.24210  0.35340  Biso   1.000  H
  H55      1.0000 0.94200  0.25790  0.85340  Biso   1.000  H
  H56      1.0000 0.55800  0.75790  0.64660  Biso   1.000  H
  H57      1.0000 0.19110  0.75710  0.19410  Biso   1.000  H
  H58      1.0000 0.30890  0.25710  0.30590  Biso   1.000  H
  H59      1.0000 0.80890  0.24290  0.80590  Biso   1.000  H
  H60      1.0000 0.69110  0.74290  0.69410  Biso   1.000  H
  C33      1.0000 0.12340  0.72388  0.29030  Biso   1.000  C
  C34      1.0000 0.37660  0.22388  0.20970  Biso   1.000  C
  C35      1.0000 0.87660  0.27612  0.70970  Biso   1.000  C
  C36      1.0000 0.62340  0.77612  0.79030  Biso   1.000  C
  H61      1.0000 0.19620  0.73290  0.34060  Biso   1.000  H
  H62      1.0000 0.30380  0.23290  0.15940  Biso   1.000  H
  H63      1.0000 0.80380  0.26710  0.65940  Biso   1.000  H
  H64      1.0000 0.69620  0.76710  0.84060  Biso   1.000  H
  H65      1.0000 0.06160  0.74610  0.29800  Biso   1.000  H
  H66      1.0000 0.43840  0.24610  0.20200  Biso   1.000  H
  H67      1.0000 0.93840  0.25390  0.70200  Biso   1.000  H
  H68      1.0000 0.56160  0.75390  0.79800  Biso   1.000  H
  C37      1.0000 0.11000  0.64454  0.38370  Biso   1.000  C
  C38      1.0000 0.39000  0.14454  0.11630  Biso   1.000  C
  C39      1.0000 0.89000  0.35546  0.61630  Biso   1.000  C
  C40      1.0000 0.61000  0.85546  0.88370  Biso   1.000  C
  H69      1.0000 0.08990  0.60660  0.37700  Biso   1.000  H
  H70      1.0000 0.41010  0.10660  0.12300  Biso   1.000  H
  H71      1.0000 0.91010  0.39340  0.62300  Biso   1.000  H
  H72      1.0000 0.58990  0.89340  0.87700  Biso   1.000  H
  H73      1.0000 0.05930  0.66340  0.41050  Biso   1.000  H
  H74      1.0000 0.44070  0.16340  0.08950  Biso   1.000  H
  H75      1.0000 0.94070  0.33660  0.58950  Biso   1.000  H
  H76      1.0000 0.55930  0.83660  0.91050  Biso   1.000  H
  H77      1.0000 0.18910  0.64860  0.42580  Biso   1.000  H
  H78      1.0000 0.31090  0.14860  0.07420  Biso   1.000  H
  H79      1.0000 0.81090  0.35140  0.57420  Biso   1.000  H
  H80      1.0000 0.68910  0.85140  0.92580  Biso   1.000  H
  C41      1.0000 0.21490  0.56317  0.17863  Biso   1.000  C
  C42      1.0000 0.28510  0.06317  0.32137  Biso   1.000  C
  C43      1.0000 0.78510  0.43683  0.82137  Biso   1.000  C
  C44      1.0000 0.71490  0.93683  0.67863  Biso   1.000  C
  H81      1.0000 0.26520  0.59020  0.16520  Biso   1.000  H
  H82      1.0000 0.23480  0.09020  0.33480  Biso   1.000  H
  H83      1.0000 0.73480  0.40980  0.83480  Biso   1.000  H
  H84      1.0000 0.76520  0.90980  0.66520  Biso   1.000  H
  H85      1.0000 0.16660  0.54750  0.11780  Biso   1.000  H
  H86      1.0000 0.33340  0.04750  0.38220  Biso   1.000  H
  H87      1.0000 0.83340  0.45250  0.88220  Biso   1.000  H
  H88      1.0000 0.66660  0.95250  0.61780  Biso   1.000  H
  C45      1.0000 0.28670  0.51981  0.24160  Biso   1.000  C
  C46      1.0000 0.21330  0.01981  0.25840  Biso   1.000  C
  C47      1.0000 0.71330  0.48019  0.75840  Biso   1.000  C
  C48      1.0000 0.78670  0.98019  0.74160  Biso   1.000  C
  H89      1.0000 0.33080  0.50130  0.20730  Biso   1.000  H
  H90      1.0000 0.16920  0.00130  0.29270  Biso   1.000  H
  H91      1.0000 0.66920  0.49870  0.79270  Biso   1.000  H
  H92      1.0000 0.83080  0.99870  0.70730  Biso   1.000  H
  H93      1.0000 0.23570  0.49330  0.25530  Biso   1.000  H
  H94      1.0000 0.26430  0.99330  0.24470  Biso   1.000  H
  H95      1.0000 0.76430  0.50670  0.74470  Biso   1.000  H
  H96      1.0000 0.73570  0.00670  0.75530  Biso   1.000  H
  C49      1.0000 0.36900  0.54125  0.33460  Biso   1.000  C
  C50      1.0000 0.13100  0.04125  0.16540  Biso   1.000  C
  C51      1.0000 0.63100  0.45875  0.66540  Biso   1.000  C
  C52      1.0000 0.86900  0.95875  0.83460  Biso   1.000  C
  H97      1.0000 0.32570  0.55940  0.37000  Biso   1.000  H
  H98      1.0000 0.17430  0.05940  0.13000  Biso   1.000  H
  H99      1.0000 0.67430  0.44060  0.63000  Biso   1.000  H
  H100     1.0000 0.82570  0.94060  0.87000  Biso   1.000  H
  H101     1.0000 0.41190  0.51130  0.37370  Biso   1.000  H
  H102     1.0000 0.08810  0.01130  0.12630  Biso   1.000  H
  H103     1.0000 0.58810  0.48870  0.62630  Biso   1.000  H
  H104     1.0000 0.91190  0.98870  0.87370  Biso   1.000  H
  C53      1.0000 0.45950  0.62687  0.35309  Biso   1.000  C
  C54      1.0000 0.04050  0.12687  0.14691  Biso   1.000  C
  C55      1.0000 0.54050  0.37313  0.64691  Biso   1.000  C
  C56      1.0000 0.95950  0.87313  0.85309  Biso   1.000  C
  C57      1.0000 0.45000  0.60656  0.51100  Biso   1.000  C
  C58      1.0000 0.05000  0.10656  0.98900  Biso   1.000  C
  C59      1.0000 0.55000  0.39344  0.48900  Biso   1.000  C
  C60      1.0000 0.95000  0.89344  0.01100  Biso   1.000  C
  H105     1.0000 0.49580  0.57580  0.50520  Biso   1.000  H
  H106     1.0000 0.00420  0.07580  0.99480  Biso   1.000  H
  H107     1.0000 0.50420  0.42420  0.49480  Biso   1.000  H
  H108     1.0000 0.99580  0.92420  0.00520  Biso   1.000  H
  H109     1.0000 0.37610  0.59420  0.51220  Biso   1.000  H
  H110     1.0000 0.12390  0.09420  0.98780  Biso   1.000  H
  H111     1.0000 0.62390  0.40580  0.48780  Biso   1.000  H
  H112     1.0000 0.87610  0.90580  0.01220  Biso   1.000  H
  H113     1.0000 0.49010  0.62580  0.56970  Biso   1.000  H
  H114     1.0000 0.00990  0.12580  0.93030  Biso   1.000  H
  H115     1.0000 0.50990  0.37420  0.43030  Biso   1.000  H
  H116     1.0000 0.99010  0.87420  0.06970  Biso   1.000  H
  C61      1.0000 0.46880  0.69767  0.45340  Biso   1.000  C
  C62      1.0000 0.03120  0.19767  0.04660  Biso   1.000  C
  C63      1.0000 0.53120  0.30233  0.54660  Biso   1.000  C
  C64      1.0000 0.96880  0.80233  0.95340  Biso   1.000  C
  H117     1.0000 0.54290  0.69940  0.50580  Biso   1.000  H
  H118     1.0000 0.95710  0.19940  0.99420  Biso   1.000  H
  H119     1.0000 0.45710  0.30060  0.49420  Biso   1.000  H
  H120     1.0000 0.04290  0.80060  0.00580  Biso   1.000  H
  H121     1.0000 0.41140  0.71810  0.47140  Biso   1.000  H
  H122     1.0000 0.08860  0.21810  0.02860  Biso   1.000  H
  H123     1.0000 0.58860  0.28190  0.52860  Biso   1.000  H
  H124     1.0000 0.91140  0.78190  0.97140  Biso   1.000  H
  C65      1.0000 0.47890  0.71847  0.36250  Biso   1.000  C
  C66      1.0000 0.02110  0.21847  0.13750  Biso   1.000  C
  C67      1.0000 0.52110  0.28153  0.63750  Biso   1.000  C
  C68      1.0000 0.97890  0.78153  0.86250  Biso   1.000  C
  H125     1.0000 0.40780  0.73630  0.32300  Biso   1.000  H
  H126     1.0000 0.09220  0.23630  0.17700  Biso   1.000  H
  H127     1.0000 0.59220  0.26370  0.67700  Biso   1.000  H
  H128     1.0000 0.90780  0.76370  0.82300  Biso   1.000  H
  H129     1.0000 0.54340  0.74370  0.37490  Biso   1.000  H
  H130     1.0000 0.95660  0.24370  0.12510  Biso   1.000  H
  H131     1.0000 0.45660  0.25630  0.62510  Biso   1.000  H
  H132     1.0000 0.04340  0.75630  0.87490  Biso   1.000  H
  C69      1.0000 0.49320  0.67293  0.22030  Biso   1.000  C
  C70      1.0000 0.00680  0.17293  0.27970  Biso   1.000  C
  C71      1.0000 0.50680  0.32707  0.77970  Biso   1.000  C
  C72      1.0000 0.99320  0.82707  0.72030  Biso   1.000  C
  H133     1.0000 0.53640  0.64350  0.20600  Biso   1.000  H
  H134     1.0000 0.96360  0.14350  0.29400  Biso   1.000  H
  H135     1.0000 0.46360  0.35650  0.79400  Biso   1.000  H
  H136     1.0000 0.03640  0.85650  0.70600  Biso   1.000  H
  H137     1.0000 0.52560  0.70700  0.21000  Biso   1.000  H
  H138     1.0000 0.97440  0.20700  0.29000  Biso   1.000  H
  H139     1.0000 0.47440  0.29300  0.79000  Biso   1.000  H
  H140     1.0000 0.02560  0.79300  0.71000  Biso   1.000  H
  H141     1.0000 0.41340  0.67070  0.17890  Biso   1.000  H
  H142     1.0000 0.08660  0.17070  0.32110  Biso   1.000  H
  H143     1.0000 0.58660  0.32930  0.82110  Biso   1.000  H
  H144     1.0000 0.91340  0.82930  0.67890  Biso   1.000  H
  C73      1.0000 0.62160  0.47624  0.14810  Biso   1.000  C
  C74      1.0000 0.87840  0.97624  0.35190  Biso   1.000  C
  C75      1.0000 0.37840  0.52376  0.85190  Biso   1.000  C
  C76      1.0000 0.12160  0.02376  0.64810  Biso   1.000  C
  C77      1.0000 0.56200  0.42911  0.26890  Biso   1.000  C
  C78      1.0000 0.93800  0.92911  0.23110  Biso   1.000  C
  C79      1.0000 0.43800  0.57089  0.73110  Biso   1.000  C
  C80      1.0000 0.06200  0.07089  0.76890  Biso   1.000  C
  H145     1.0000 0.60530  0.39770  0.30010  Biso   1.000  H
  H146     1.0000 0.89470  0.89770  0.19990  Biso   1.000  H
  H147     1.0000 0.39470  0.60230  0.69990  Biso   1.000  H
  H148     1.0000 0.10530  0.10230  0.80010  Biso   1.000  H
  H149     1.0000 0.48190  0.42490  0.26350  Biso   1.000  H
  H150     1.0000 0.01810  0.92490  0.23650  Biso   1.000  H
  H151     1.0000 0.51810  0.57510  0.73650  Biso   1.000  H
  H152     1.0000 0.98190  0.07510  0.76350  Biso   1.000  H
  H153     1.0000 0.59350  0.46100  0.30640  Biso   1.000  H
  H154     1.0000 0.90650  0.96100  0.19360  Biso   1.000  H
  H155     1.0000 0.40650  0.53900  0.69360  Biso   1.000  H
  H156     1.0000 0.09350  0.03900  0.80640  Biso   1.000  H
  C81      1.0000 0.58380  0.38590  0.12650  Biso   1.000  C
  C82      1.0000 0.91620  0.88590  0.37350  Biso   1.000  C
  C83      1.0000 0.41620  0.61410  0.87350  Biso   1.000  C
  C84      1.0000 0.08380  0.11410  0.62650  Biso   1.000  C
  H157     1.0000 0.51330  0.36420  0.10670  Biso   1.000  H
  H158     1.0000 0.98670  0.86420  0.39330  Biso   1.000  H
  H159     1.0000 0.48670  0.63580  0.89330  Biso   1.000  H
  H160     1.0000 0.01330  0.13580  0.60670  Biso   1.000  H
  H161     1.0000 0.64790  0.36410  0.16710  Biso   1.000  H
  H162     1.0000 0.85210  0.86410  0.33290  Biso   1.000  H
  H163     1.0000 0.35210  0.63590  0.83290  Biso   1.000  H
  H164     1.0000 0.14790  0.13590  0.66710  Biso   1.000  H
  C85      1.0000 0.60850  0.40771  0.04270  Biso   1.000  C
  C86      1.0000 0.89150  0.90771  0.45730  Biso   1.000  C
  C87      1.0000 0.39150  0.59229  0.95730  Biso   1.000  C
  C88      1.0000 0.10850  0.09229  0.54270  Biso   1.000  C
  H165     1.0000 0.66520  0.38540  0.02740  Biso   1.000  H
  H166     1.0000 0.83480  0.88540  0.47260  Biso   1.000  H
  H167     1.0000 0.33480  0.61460  0.97260  Biso   1.000  H
  H168     1.0000 0.16520  0.11460  0.52740  Biso   1.000  H
  H169     1.0000 0.53820  0.40970  0.98660  Biso   1.000  H
  H170     1.0000 0.96180  0.90970  0.51340  Biso   1.000  H
  H171     1.0000 0.46180  0.59030  0.01340  Biso   1.000  H
  H172     1.0000 0.03820  0.09030  0.48660  Biso   1.000  H
  C89      1.0000 0.65260  0.49835  0.99793  Biso   1.000  C
  C90      1.0000 0.84740  0.99835  0.50207  Biso   1.000  C
  C91      1.0000 0.34740  0.50165  0.00207  Biso   1.000  C
  C92      1.0000 0.15260  0.00165  0.49793  Biso   1.000  C
  H173     1.0000 0.61580  0.53170  0.00560  Biso   1.000  H
  H174     1.0000 0.88420  0.03170  0.49440  Biso   1.000  H
  H175     1.0000 0.38420  0.46830  0.99440  Biso   1.000  H
  H176     1.0000 0.11580  0.96830  0.50560  Biso   1.000  H
  H177     1.0000 0.61010  0.48250  0.93640  Biso   1.000  H
  H178     1.0000 0.88990  0.98250  0.56360  Biso   1.000  H
  H179     1.0000 0.38990  0.51750  0.06360  Biso   1.000  H
  H180     1.0000 0.11010  0.01750  0.43640  Biso   1.000  H
  H181     1.0000 0.73100  0.50570  0.00120  Biso   1.000  H
  H182     1.0000 0.76900  0.00570  0.49880  Biso   1.000  H
  H183     1.0000 0.26900  0.49430  0.99880  Biso   1.000  H
  H184     1.0000 0.23100  0.99430  0.50120  Biso   1.000  H
  C93      1.0000 0.72390  0.55983  0.18014  Biso   1.000  C
  C94      1.0000 0.77610  0.05983  0.31986  Biso   1.000  C
  C95      1.0000 0.27610  0.44017  0.81986  Biso   1.000  C
  C96      1.0000 0.22390  0.94017  0.68014  Biso   1.000  C
  H185     1.0000 0.68800  0.59230  0.14510  Biso   1.000  H
  H186     1.0000 0.81200  0.09230  0.35490  Biso   1.000  H
  H187     1.0000 0.31200  0.40770  0.85490  Biso   1.000  H
  H188     1.0000 0.18800  0.90770  0.64510  Biso   1.000  H
  H189     1.0000 0.76740  0.54210  0.14450  Biso   1.000  H
  H190     1.0000 0.73260  0.04210  0.35550  Biso   1.000  H
  H191     1.0000 0.23260  0.45790  0.85550  Biso   1.000  H
  H192     1.0000 0.26740  0.95790  0.64450  Biso   1.000  H
  C97      1.0000 0.80430  0.57510  0.27850  Biso   1.000  C
  C98      1.0000 0.69570  0.07510  0.22150  Biso   1.000  C
  C99      1.0000 0.19570  0.42490  0.72150  Biso   1.000  C
  C100     1.0000 0.30430  0.92490  0.77850  Biso   1.000  C
  H193     1.0000 0.86180  0.60060  0.27240  Biso   1.000  H
  H194     1.0000 0.63820  0.10060  0.22760  Biso   1.000  H
  H195     1.0000 0.13820  0.39940  0.72760  Biso   1.000  H
  H196     1.0000 0.36180  0.89940  0.77240  Biso   1.000  H
  H197     1.0000 0.76020  0.59310  0.31340  Biso   1.000  H
  H198     1.0000 0.73980  0.09310  0.18660  Biso   1.000  H
  H199     1.0000 0.23980  0.40690  0.68660  Biso   1.000  H
  H200     1.0000 0.26020  0.90690  0.81340  Biso   1.000  H
  C101     1.0000 0.86470  0.52687  0.33471  Biso   1.000  C
  C102     1.0000 0.63530  0.02687  0.16529  Biso   1.000  C
  C103     1.0000 0.13530  0.47313  0.66529  Biso   1.000  C
  C104     1.0000 0.36470  0.97313  0.83471  Biso   1.000  C
  H201     1.0000 0.91440  0.53830  0.39840  Biso   1.000  H
  H202     1.0000 0.58560  0.03830  0.10160  Biso   1.000  H
  H203     1.0000 0.08560  0.46170  0.60160  Biso   1.000  H
  H204     1.0000 0.41440  0.96170  0.89840  Biso   1.000  H
  H205     1.0000 0.80770  0.50140  0.34220  Biso   1.000  H
  H206     1.0000 0.69230  0.00140  0.15780  Biso   1.000  H
  H207     1.0000 0.19230  0.49860  0.65780  Biso   1.000  H
  H208     1.0000 0.30770  0.99860  0.84220  Biso   1.000  H
  P1       1.0000 0.77814  0.63913  0.92044  Biso   1.000  P
  P2       1.0000 0.72186  0.13913  0.57956  Biso   1.000  P
  P3       1.0000 0.22186  0.36087  0.07956  Biso   1.000  P
  P4       1.0000 0.27814  0.86087  0.42044  Biso   1.000  P
  F1       1.0000 0.87690  0.61934  0.01190  Biso   1.000  F
  F2       1.0000 0.62310  0.11934  0.48810  Biso   1.000  F
  F3       1.0000 0.12310  0.38066  0.98810  Biso   1.000  F
  F4       1.0000 0.37690  0.88066  0.51190  Biso   1.000  F
  F5       1.0000 0.76250  0.58116  0.88300  Biso   1.000  F
  F6       1.0000 0.73750  0.08116  0.61700  Biso   1.000  F
  F7       1.0000 0.23750  0.41884  0.11700  Biso   1.000  F
  F8       1.0000 0.26250  0.91884  0.38300  Biso   1.000  F
  F9       1.0000 0.86830  0.65297  0.87350  Biso   1.000  F
  F10      1.0000 0.63170  0.15297  0.62650  Biso   1.000  F
  F11      1.0000 0.13170  0.34703  0.12650  Biso   1.000  F
  F12      1.0000 0.36830  0.84703  0.37350  Biso   1.000  F
  F13      1.0000 0.67770  0.65873  0.82959  Biso   1.000  F
  F14      1.0000 0.82230  0.15873  0.67041  Biso   1.000  F
  F15      1.0000 0.32230  0.34127  0.17041  Biso   1.000  F
  F16      1.0000 0.17770  0.84127  0.32959  Biso   1.000  F
  F17      1.0000 0.79350  0.69823  0.96291  Biso   1.000  F
  F18      1.0000 0.70650  0.19823  0.53709  Biso   1.000  F
  F19      1.0000 0.20650  0.30177  0.03709  Biso   1.000  F
  F20      1.0000 0.29350  0.80177  0.46291  Biso   1.000  F
  F21      1.0000 0.69227  0.62763  0.97656  Biso   1.000  F
  F22      1.0000 0.80773  0.12763  0.52344  Biso   1.000  F
  F23      1.0000 0.30773  0.37237  0.02344  Biso   1.000  F
  F24      1.0000 0.19227  0.87237  0.47656  Biso   1.000  F
  P5       1.0000 0.35014  0.76351  0.95811  Biso   1.000  P
  P6       1.0000 0.14986  0.26351  0.54189  Biso   1.000  P
  P7       1.0000 0.64986  0.23649  0.04189  Biso   1.000  P
  P8       1.0000 0.85014  0.73649  0.45811  Biso   1.000  P
  F25      1.0000 0.44250  0.80490  0.01010  Biso   1.000  F
  F26      1.0000 0.05750  0.30490  0.48990  Biso   1.000  F
  F27      1.0000 0.55750  0.19510  0.98990  Biso   1.000  F
  F28      1.0000 0.94250  0.69510  0.51010  Biso   1.000  F
  F29      1.0000 0.27140  0.81020  0.90040  Biso   1.000  F
  F30      1.0000 0.22860  0.31020  0.59960  Biso   1.000  F
  F31      1.0000 0.72860  0.18980  0.09960  Biso   1.000  F
  F32      1.0000 0.77140  0.68980  0.40040  Biso   1.000  F
  F33      1.0000 0.25270  0.72220  0.90290  Biso   1.000  F
  F34      1.0000 0.24730  0.22220  0.59710  Biso   1.000  F
  F35      1.0000 0.74730  0.27780  0.09710  Biso   1.000  F
  F36      1.0000 0.75270  0.77780  0.40290  Biso   1.000  F
  F37      1.0000 0.42450  0.71480  0.01330  Biso   1.000  F
  F38      1.0000 0.07550  0.21480  0.48670  Biso   1.000  F
  F39      1.0000 0.57550  0.28520  0.98670  Biso   1.000  F
  F40      1.0000 0.92450  0.78520  0.51330  Biso   1.000  F
  F41      1.0000 0.41070  0.75425  0.88282  Biso   1.000  F
  F42      1.0000 0.08930  0.25425  0.61718  Biso   1.000  F
  F43      1.0000 0.58930  0.24575  0.11718  Biso   1.000  F
  F44      1.0000 0.91070  0.74575  0.38282  Biso   1.000  F
  F45      1.0000 0.28920  0.77218  0.03350  Biso   1.000  F
  F46      1.0000 0.21080  0.27218  0.46650  Biso   1.000  F
  F47      1.0000 0.71080  0.22782  0.96650  Biso   1.000  F
  F48      1.0000 0.78920  0.72782  0.53350  Biso   1.000  F
  F49      1.0000 0.33100  0.82130  0.92010  Biso   1.000  F
  F50      1.0000 0.16900  0.32130  0.57990  Biso   1.000  F
  F51      1.0000 0.66900  0.17870  0.07990  Biso   1.000  F
  F52      1.0000 0.83100  0.67870  0.42010  Biso   1.000  F
  F53      1.0000 0.24170  0.74150  0.88370  Biso   1.000  F
  F54      1.0000 0.25830  0.24150  0.61630  Biso   1.000  F
  F55      1.0000 0.75830  0.25850  0.11630  Biso   1.000  F
  F56      1.0000 0.74170  0.75850  0.38370  Biso   1.000  F
  F57      1.0000 0.37600  0.70590  0.99930  Biso   1.000  F
  F58      1.0000 0.12400  0.20590  0.50070  Biso   1.000  F
  F59      1.0000 0.62400  0.29410  0.00070  Biso   1.000  F
  F60      1.0000 0.87600  0.79410  0.49930  Biso   1.000  F
  F61      1.0000 0.46320  0.78290  0.03670  Biso   1.000  F
  F62      1.0000 0.03680  0.28290  0.46330  Biso   1.000  F
  F63      1.0000 0.53680  0.21710  0.96330  Biso   1.000  F
  F64      1.0000 0.96320  0.71710  0.53670  Biso   1.000  F
  N49      1.0000 0.73440  0.51710  0.50250  Biso   1.000  N
  N50      1.0000 0.76560  0.01710  0.99750  Biso   1.000  N
  N51      1.0000 0.26560  0.48290  0.49750  Biso   1.000  N
  N52      1.0000 0.23440  0.98290  0.00250  Biso   1.000  N
  C105     1.0000 0.75450  0.55450  0.54440  Biso   1.000  C
  C106     1.0000 0.74550  0.05450  0.95560  Biso   1.000  C
  C107     1.0000 0.24550  0.44550  0.45560  Biso   1.000  C
  C108     1.0000 0.25450  0.94550  0.04440  Biso   1.000  C
  C109     1.0000 0.77720  0.60230  0.60270  Biso   1.000  C
  C110     1.0000 0.72280  0.10230  0.89730  Biso   1.000  C
  C111     1.0000 0.22280  0.39770  0.39730  Biso   1.000  C
  C112     1.0000 0.27720  0.89770  0.10270  Biso   1.000  C
  H209     1.0000 0.70750  0.61340  0.61370  Biso   1.000  H
  H210     1.0000 0.79250  0.11340  0.88630  Biso   1.000  H
  H211     1.0000 0.29250  0.38660  0.38630  Biso   1.000  H
  H212     1.0000 0.20750  0.88660  0.11370  Biso   1.000  H
  H213     1.0000 0.80250  0.63100  0.57030  Biso   1.000  H
  H214     1.0000 0.69750  0.13100  0.92970  Biso   1.000  H
  H215     1.0000 0.19750  0.36900  0.42970  Biso   1.000  H
  H216     1.0000 0.30250  0.86900  0.07030  Biso   1.000  H
  H217     1.0000 0.83690  0.59480  0.66340  Biso   1.000  H
  H218     1.0000 0.66310  0.09480  0.83660  Biso   1.000  H
  H219     1.0000 0.16310  0.40520  0.33660  Biso   1.000  H
  H220     1.0000 0.33690  0.90520  0.16340  Biso   1.000  H
  N53      1.0000 0.82640  0.80636  0.12320  Biso   1.000  N
  N54      1.0000 0.67360  0.30636  0.37680  Biso   1.000  N
  N55      1.0000 0.17360  0.19364  0.87680  Biso   1.000  N
  N56      1.0000 0.32640  0.69364  0.62320  Biso   1.000  N
  C113     1.0000 0.79890  0.76608  0.13880  Biso   1.000  C
  C114     1.0000 0.70110  0.26608  0.36120  Biso   1.000  C
  C115     1.0000 0.20110  0.23392  0.86120  Biso   1.000  C
  C116     1.0000 0.29890  0.73392  0.63880  Biso   1.000  C
  C117     1.0000 0.76210  0.71365  0.15790  Biso   1.000  C
  C118     1.0000 0.73790  0.21365  0.34210  Biso   1.000  C
  C119     1.0000 0.23790  0.28635  0.84210  Biso   1.000  C
  C120     1.0000 0.26210  0.78635  0.65790  Biso   1.000  C
  H221     1.0000 0.69170  0.70380  0.10700  Biso   1.000  H
  H222     1.0000 0.80830  0.20380  0.39300  Biso   1.000  H
  H223     1.0000 0.30830  0.29620  0.89300  Biso   1.000  H
  H224     1.0000 0.19170  0.79620  0.60700  Biso   1.000  H
  H225     1.0000 0.74820  0.71440  0.21820  Biso   1.000  H
  H226     1.0000 0.75180  0.21440  0.28180  Biso   1.000  H
  H227     1.0000 0.25180  0.28560  0.78180  Biso   1.000  H
  H228     1.0000 0.24820  0.78560  0.71820  Biso   1.000  H
  H229     1.0000 0.82170  0.68740  0.16150  Biso   1.000  H
  H230     1.0000 0.67830  0.18740  0.33850  Biso   1.000  H
  H231     1.0000 0.17830  0.31260  0.83850  Biso   1.000  H
  H232     1.0000 0.32170  0.81260  0.66150  Biso   1.000  H
