data_image0
_cell_length_a       13.442
_cell_length_b       30.738
_cell_length_c       14.288
_cell_angle_alpha    90
_cell_angle_beta     90.43
_cell_angle_gamma    90

_symmetry_space_group_name_H-M    "P 1"
_symmetry_int_tables_number       1

loop_
  _symmetry_equiv_pos_as_xyz
  'x, y, z'

loop_
  _atom_site_label
  _atom_site_occupancy
  _atom_site_fract_x
  _atom_site_fract_y
  _atom_site_fract_z
  _atom_site_thermal_displace_type
  _atom_site_B_iso_or_equiv
  _atom_site_type_symbol
  K1       1.0000 0.44908  0.33345  0.35599  Biso   1.000  K
  K2       1.0000 0.05092  0.83345  0.14401  Biso   1.000  K
  K3       1.0000 0.55092  0.66655  0.64401  Biso   1.000  K
  K4       1.0000 0.94908  0.16655  0.85599  Biso   1.000  K
  Cu1      1.0000 0.84710  0.09206  0.32361  Biso   1.000  Cu
  Cu2      1.0000 0.65290  0.59206  0.17639  Biso   1.000  Cu
  Cu3      1.0000 0.15290  0.90794  0.67639  Biso   1.000  Cu
  Cu4      1.0000 0.34710  0.40794  0.82361  Biso   1.000  Cu
  Cu5      1.0000 0.04065  0.09001  0.37222  Biso   1.000  Cu
  Cu6      1.0000 0.45935  0.59001  0.12778  Biso   1.000  Cu
  Cu7      1.0000 0.95935  0.90999  0.62778  Biso   1.000  Cu
  Cu8      1.0000 0.54065  0.40999  0.87222  Biso   1.000  Cu
  Cu9      1.0000 0.91969  0.02549  0.43064  Biso   1.000  Cu
  Cu10     1.0000 0.58031  0.52549  0.06936  Biso   1.000  Cu
  Cu11     1.0000 0.08031  0.97451  0.56936  Biso   1.000  Cu
  Cu12     1.0000 0.41969  0.47451  0.93064  Biso   1.000  Cu
  I1       1.0000 0.94358  0.16447  0.36484  Biso   1.000  I
  I2       1.0000 0.55642  0.66447  0.13516  Biso   1.000  I
  I3       1.0000 0.05642  0.83553  0.63516  Biso   1.000  I
  I4       1.0000 0.44358  0.33553  0.86484  Biso   1.000  I
  I5       1.0000 0.05477  0.05973  0.54640  Biso   1.000  I
  I6       1.0000 0.44523  0.55973  0.95360  Biso   1.000  I
  I7       1.0000 0.94523  0.94027  0.45360  Biso   1.000  I
  I8       1.0000 0.55477  0.44027  0.04640  Biso   1.000  I
  I9       1.0000 0.96789  0.03253  0.24570  Biso   1.000  I
  I10      1.0000 0.53211  0.53253  0.25430  Biso   1.000  I
  I11      1.0000 0.03211  0.96747  0.75430  Biso   1.000  I
  I12      1.0000 0.46789  0.46747  0.74570  Biso   1.000  I
  I13      1.0000 0.73774  0.05300  0.45078  Biso   1.000  I
  I14      1.0000 0.76226  0.55300  0.04922  Biso   1.000  I
  I15      1.0000 0.26226  0.94700  0.54922  Biso   1.000  I
  I16      1.0000 0.23774  0.44700  0.95078  Biso   1.000  I
  S1       1.0000 0.73740  0.10938  0.20070  Biso   1.000  S
  S2       1.0000 0.76260  0.60938  0.29930  Biso   1.000  S
  S3       1.0000 0.26260  0.89062  0.79930  Biso   1.000  S
  S4       1.0000 0.23740  0.39062  0.70070  Biso   1.000  S
  S5       1.0000 0.20560  0.09771  0.32930  Biso   1.000  S
  S6       1.0000 0.29440  0.59771  0.17070  Biso   1.000  S
  S7       1.0000 0.79440  0.90229  0.67070  Biso   1.000  S
  S8       1.0000 0.70560  0.40229  0.82930  Biso   1.000  S
  O1       1.0000 0.60290  0.21960  0.27990  Biso   1.000  O
  O2       1.0000 0.89710  0.71960  0.22010  Biso   1.000  O
  O3       1.0000 0.39710  0.78040  0.72010  Biso   1.000  O
  O4       1.0000 0.10290  0.28040  0.77990  Biso   1.000  O
  O5       1.0000 0.51570  0.03320  0.11420  Biso   1.000  O
  O6       1.0000 0.98430  0.53320  0.38580  Biso   1.000  O
  O7       1.0000 0.48430  0.96680  0.88580  Biso   1.000  O
  O8       1.0000 0.01570  0.46680  0.61420  Biso   1.000  O
  O9       1.0000 0.31600  0.03200  0.18100  Biso   1.000  O
  O10      1.0000 0.18400  0.53200  0.31900  Biso   1.000  O
  O11      1.0000 0.68400  0.96800  0.81900  Biso   1.000  O
  O12      1.0000 0.81600  0.46800  0.68100  Biso   1.000  O
  O13      1.0000 0.30720  0.19460  0.40920  Biso   1.000  O
  O14      1.0000 0.19280  0.69460  0.09080  Biso   1.000  O
  O15      1.0000 0.69280  0.80540  0.59080  Biso   1.000  O
  O16      1.0000 0.80720  0.30540  0.90920  Biso   1.000  O
  O17      1.0000 0.37720  0.29210  0.20150  Biso   1.000  O
  O18      1.0000 0.12280  0.79210  0.29850  Biso   1.000  O
  O19      1.0000 0.62280  0.70790  0.79850  Biso   1.000  O
  O20      1.0000 0.87720  0.20790  0.70150  Biso   1.000  O
  O21      1.0000 0.32410  0.37880  0.23560  Biso   1.000  O
  O22      1.0000 0.17590  0.87880  0.26440  Biso   1.000  O
  O23      1.0000 0.67590  0.62120  0.76440  Biso   1.000  O
  O24      1.0000 0.82410  0.12120  0.73560  Biso   1.000  O
  O25      1.0000 0.41760  0.42160  0.38120  Biso   1.000  O
  O26      1.0000 0.08240  0.92160  0.11880  Biso   1.000  O
  O27      1.0000 0.58240  0.57840  0.61880  Biso   1.000  O
  O28      1.0000 0.91760  0.07840  0.88120  Biso   1.000  O
  O29      1.0000 0.55700  0.37740  0.49940  Biso   1.000  O
  O30      1.0000 0.94300  0.87740  0.00060  Biso   1.000  O
  O31      1.0000 0.44300  0.62260  0.50060  Biso   1.000  O
  O32      1.0000 0.05700  0.12260  0.99940  Biso   1.000  O
  O33      1.0000 0.51850  0.29010  0.50970  Biso   1.000  O
  O34      1.0000 0.98150  0.79010  0.99030  Biso   1.000  O
  O35      1.0000 0.48150  0.70990  0.49030  Biso   1.000  O
  O36      1.0000 0.01850  0.20990  0.00970  Biso   1.000  O
  C1       1.0000 0.67680  0.19180  0.23800  Biso   1.000  C
  C2       1.0000 0.82320  0.69180  0.26200  Biso   1.000  C
  C3       1.0000 0.32320  0.80820  0.76200  Biso   1.000  C
  C4       1.0000 0.17680  0.30820  0.73800  Biso   1.000  C
  H1       1.0000 0.74110  0.19650  0.26760  Biso   1.000  H
  H2       1.0000 0.75890  0.69650  0.23240  Biso   1.000  H
  H3       1.0000 0.25890  0.80350  0.73240  Biso   1.000  H
  H4       1.0000 0.24110  0.30350  0.76760  Biso   1.000  H
  H5       1.0000 0.68260  0.19830  0.17180  Biso   1.000  H
  H6       1.0000 0.81740  0.69830  0.32820  Biso   1.000  H
  H7       1.0000 0.31740  0.80170  0.82820  Biso   1.000  H
  H8       1.0000 0.18260  0.30170  0.67180  Biso   1.000  H
  C5       1.0000 0.64410  0.14510  0.25140  Biso   1.000  C
  C6       1.0000 0.85590  0.64510  0.24860  Biso   1.000  C
  C7       1.0000 0.35590  0.85490  0.74860  Biso   1.000  C
  C8       1.0000 0.14410  0.35490  0.75140  Biso   1.000  C
  H9       1.0000 0.58020  0.14040  0.22100  Biso   1.000  H
  H10      1.0000 0.91980  0.64040  0.27900  Biso   1.000  H
  H11      1.0000 0.41980  0.85960  0.77900  Biso   1.000  H
  H12      1.0000 0.08020  0.35960  0.72100  Biso   1.000  H
  H13      1.0000 0.63710  0.13890  0.31760  Biso   1.000  H
  H14      1.0000 0.86290  0.63890  0.18240  Biso   1.000  H
  H15      1.0000 0.36290  0.86110  0.68240  Biso   1.000  H
  H16      1.0000 0.13710  0.36110  0.81760  Biso   1.000  H
  C9       1.0000 0.66150  0.06090  0.18440  Biso   1.000  C
  C10      1.0000 0.83850  0.56090  0.31560  Biso   1.000  C
  C11      1.0000 0.33850  0.93910  0.81560  Biso   1.000  C
  C12      1.0000 0.16150  0.43910  0.68440  Biso   1.000  C
  H17      1.0000 0.70450  0.03610  0.17330  Biso   1.000  H
  H18      1.0000 0.79550  0.53610  0.32670  Biso   1.000  H
  H19      1.0000 0.29550  0.96390  0.82670  Biso   1.000  H
  H20      1.0000 0.20450  0.46390  0.67330  Biso   1.000  H
  H21      1.0000 0.62430  0.05530  0.24100  Biso   1.000  H
  H22      1.0000 0.87570  0.55530  0.25900  Biso   1.000  H
  H23      1.0000 0.37570  0.94470  0.75900  Biso   1.000  H
  H24      1.0000 0.12430  0.44470  0.74100  Biso   1.000  H
  C13      1.0000 0.59360  0.06560  0.10720  Biso   1.000  C
  C14      1.0000 0.90640  0.56560  0.39280  Biso   1.000  C
  C15      1.0000 0.40640  0.93440  0.89280  Biso   1.000  C
  C16      1.0000 0.09360  0.43440  0.60720  Biso   1.000  C
  H25      1.0000 0.62890  0.06190  0.04870  Biso   1.000  H
  H26      1.0000 0.87110  0.56190  0.45130  Biso   1.000  H
  H27      1.0000 0.37110  0.93810  0.95130  Biso   1.000  H
  H28      1.0000 0.12890  0.43810  0.54870  Biso   1.000  H
  H29      1.0000 0.56470  0.09450  0.10770  Biso   1.000  H
  H30      1.0000 0.93530  0.59450  0.39230  Biso   1.000  H
  H31      1.0000 0.43530  0.90550  0.89230  Biso   1.000  H
  H32      1.0000 0.06470  0.40550  0.60770  Biso   1.000  H
  C17      1.0000 0.43180  0.04000  0.05190  Biso   1.000  C
  C18      1.0000 0.06820  0.54000  0.44810  Biso   1.000  C
  C19      1.0000 0.56820  0.96000  0.94810  Biso   1.000  C
  C20      1.0000 0.93180  0.46000  0.55190  Biso   1.000  C
  H33      1.0000 0.44730  0.02980  0.98940  Biso   1.000  H
  H34      1.0000 0.05270  0.52980  0.51060  Biso   1.000  H
  H35      1.0000 0.55270  0.97020  0.01060  Biso   1.000  H
  H36      1.0000 0.94730  0.47020  0.48940  Biso   1.000  H
  H37      1.0000 0.41560  0.07070  0.04840  Biso   1.000  H
  H38      1.0000 0.08440  0.57070  0.45160  Biso   1.000  H
  H39      1.0000 0.58440  0.92930  0.95160  Biso   1.000  H
  H40      1.0000 0.91560  0.42930  0.54840  Biso   1.000  H
  C21      1.0000 0.34600  0.01500  0.09100  Biso   1.000  C
  C22      1.0000 0.15400  0.51500  0.40900  Biso   1.000  C
  C23      1.0000 0.65400  0.98500  0.90900  Biso   1.000  C
  C24      1.0000 0.84600  0.48500  0.59100  Biso   1.000  C
  H41      1.0000 0.29020  0.01660  0.04750  Biso   1.000  H
  H42      1.0000 0.20980  0.51660  0.45250  Biso   1.000  H
  H43      1.0000 0.70980  0.98340  0.95250  Biso   1.000  H
  H44      1.0000 0.79020  0.48340  0.54750  Biso   1.000  H
  H45      1.0000 0.36470  0.98470  0.09740  Biso   1.000  H
  H46      1.0000 0.13530  0.48470  0.40260  Biso   1.000  H
  H47      1.0000 0.63530  0.01530  0.90260  Biso   1.000  H
  H48      1.0000 0.86470  0.51530  0.59740  Biso   1.000  H
  C25      1.0000 0.34400  0.03910  0.27800  Biso   1.000  C
  C26      1.0000 0.15600  0.53910  0.22200  Biso   1.000  C
  C27      1.0000 0.65600  0.96090  0.72200  Biso   1.000  C
  C28      1.0000 0.84400  0.46090  0.77800  Biso   1.000  C
  H49      1.0000 0.38060  0.06630  0.28440  Biso   1.000  H
  H50      1.0000 0.11940  0.56630  0.21560  Biso   1.000  H
  H51      1.0000 0.61940  0.93370  0.71560  Biso   1.000  H
  H52      1.0000 0.88060  0.43370  0.78440  Biso   1.000  H
  H53      1.0000 0.38670  0.01570  0.30010  Biso   1.000  H
  H54      1.0000 0.11330  0.51570  0.19990  Biso   1.000  H
  H55      1.0000 0.61330  0.98430  0.69990  Biso   1.000  H
  H56      1.0000 0.88670  0.48430  0.80010  Biso   1.000  H
  C29      1.0000 0.25060  0.04080  0.33400  Biso   1.000  C
  C30      1.0000 0.24940  0.54080  0.16600  Biso   1.000  C
  C31      1.0000 0.74940  0.95920  0.66600  Biso   1.000  C
  C32      1.0000 0.75060  0.45920  0.83400  Biso   1.000  C
  H57      1.0000 0.26370  0.03220  0.39830  Biso   1.000  H
  H58      1.0000 0.23630  0.53220  0.10170  Biso   1.000  H
  H59      1.0000 0.73630  0.96780  0.60170  Biso   1.000  H
  H60      1.0000 0.76370  0.46780  0.89830  Biso   1.000  H
  H61      1.0000 0.20120  0.02120  0.30760  Biso   1.000  H
  H62      1.0000 0.29880  0.52120  0.19240  Biso   1.000  H
  H63      1.0000 0.79880  0.97880  0.69240  Biso   1.000  H
  H64      1.0000 0.70120  0.47880  0.80760  Biso   1.000  H
  C33      1.0000 0.27140  0.11840  0.43440  Biso   1.000  C
  C34      1.0000 0.22860  0.61840  0.06560  Biso   1.000  C
  C35      1.0000 0.72860  0.88160  0.56560  Biso   1.000  C
  C36      1.0000 0.77140  0.38160  0.93440  Biso   1.000  C
  H65      1.0000 0.25600  0.09990  0.48740  Biso   1.000  H
  H66      1.0000 0.24400  0.59990  0.01260  Biso   1.000  H
  H67      1.0000 0.74400  0.90010  0.51260  Biso   1.000  H
  H68      1.0000 0.75600  0.40010  0.98740  Biso   1.000  H
  H69      1.0000 0.34260  0.11690  0.42420  Biso   1.000  H
  H70      1.0000 0.15740  0.61690  0.07580  Biso   1.000  H
  H71      1.0000 0.65740  0.88310  0.57580  Biso   1.000  H
  H72      1.0000 0.84260  0.38310  0.92420  Biso   1.000  H
  C37      1.0000 0.24310  0.16440  0.45690  Biso   1.000  C
  C38      1.0000 0.25690  0.66440  0.04310  Biso   1.000  C
  C39      1.0000 0.75690  0.83560  0.54310  Biso   1.000  C
  C40      1.0000 0.74310  0.33560  0.95690  Biso   1.000  C
  H73      1.0000 0.17460  0.16940  0.43810  Biso   1.000  H
  H74      1.0000 0.32540  0.66940  0.06190  Biso   1.000  H
  H75      1.0000 0.82540  0.83060  0.56190  Biso   1.000  H
  H76      1.0000 0.67460  0.33060  0.93810  Biso   1.000  H
  H77      1.0000 0.24820  0.16900  0.52390  Biso   1.000  H
  H78      1.0000 0.25180  0.66900  0.97610  Biso   1.000  H
  H79      1.0000 0.75180  0.83100  0.47610  Biso   1.000  H
  H80      1.0000 0.74820  0.33100  0.02390  Biso   1.000  H
  C41      1.0000 0.28140  0.23750  0.42060  Biso   1.000  C
  C42      1.0000 0.21860  0.73750  0.07940  Biso   1.000  C
  C43      1.0000 0.71860  0.76250  0.57940  Biso   1.000  C
  C44      1.0000 0.78140  0.26250  0.92060  Biso   1.000  C
  C45      1.0000 0.23590  0.25890  0.34470  Biso   1.000  C
  C46      1.0000 0.26410  0.75890  0.15530  Biso   1.000  C
  C47      1.0000 0.76410  0.74110  0.65530  Biso   1.000  C
  C48      1.0000 0.73590  0.24110  0.84470  Biso   1.000  C
  C49      1.0000 0.20720  0.30290  0.35500  Biso   1.000  C
  C50      1.0000 0.29280  0.80290  0.14500  Biso   1.000  C
  C51      1.0000 0.79280  0.69710  0.64500  Biso   1.000  C
  C52      1.0000 0.70720  0.19710  0.85500  Biso   1.000  C
  H81      1.0000 0.16090  0.31600  0.30970  Biso   1.000  H
  H82      1.0000 0.33910  0.81600  0.19030  Biso   1.000  H
  H83      1.0000 0.83910  0.68400  0.69030  Biso   1.000  H
  H84      1.0000 0.66090  0.18400  0.80970  Biso   1.000  H
  C53      1.0000 0.22820  0.32480  0.43970  Biso   1.000  C
  C54      1.0000 0.27180  0.82480  0.06030  Biso   1.000  C
  C55      1.0000 0.77180  0.67520  0.56030  Biso   1.000  C
  C56      1.0000 0.72820  0.17520  0.93970  Biso   1.000  C
  H85      1.0000 0.19100  0.35120  0.45540  Biso   1.000  H
  H86      1.0000 0.30900  0.85120  0.04460  Biso   1.000  H
  H87      1.0000 0.80900  0.64880  0.54460  Biso   1.000  H
  H88      1.0000 0.69100  0.14880  0.95540  Biso   1.000  H
  C57      1.0000 0.27890  0.30370  0.50760  Biso   1.000  C
  C58      1.0000 0.22110  0.80370  0.99240  Biso   1.000  C
  C59      1.0000 0.72110  0.69630  0.49240  Biso   1.000  C
  C60      1.0000 0.77890  0.19630  0.00760  Biso   1.000  C
  H89      1.0000 0.28140  0.31750  0.56930  Biso   1.000  H
  H90      1.0000 0.21860  0.81750  0.93070  Biso   1.000  H
  H91      1.0000 0.71860  0.68250  0.43070  Biso   1.000  H
  H92      1.0000 0.78140  0.18250  0.06930  Biso   1.000  H
  C61      1.0000 0.30670  0.25990  0.50320  Biso   1.000  C
  C62      1.0000 0.19330  0.75990  0.99680  Biso   1.000  C
  C63      1.0000 0.69330  0.74010  0.49680  Biso   1.000  C
  C64      1.0000 0.80670  0.24010  0.00320  Biso   1.000  C
  C65      1.0000 0.36370  0.23890  0.58260  Biso   1.000  C
  C66      1.0000 0.13630  0.73890  0.91740  Biso   1.000  C
  C67      1.0000 0.63630  0.76110  0.41740  Biso   1.000  C
  C68      1.0000 0.86370  0.26110  0.08260  Biso   1.000  C
  H93      1.0000 0.37600  0.26060  0.63070  Biso   1.000  H
  H94      1.0000 0.12400  0.76060  0.86930  Biso   1.000  H
  H95      1.0000 0.62400  0.73940  0.36930  Biso   1.000  H
  H96      1.0000 0.87600  0.23940  0.13070  Biso   1.000  H
  H97      1.0000 0.32250  0.21630  0.60980  Biso   1.000  H
  H98      1.0000 0.17750  0.71630  0.89020  Biso   1.000  H
  H99      1.0000 0.67750  0.78370  0.39020  Biso   1.000  H
  H100     1.0000 0.82250  0.28370  0.10980  Biso   1.000  H
  C69      1.0000 0.46070  0.21930  0.55480  Biso   1.000  C
  C70      1.0000 0.03930  0.71930  0.94520  Biso   1.000  C
  C71      1.0000 0.53930  0.78070  0.44520  Biso   1.000  C
  C72      1.0000 0.96070  0.28070  0.05480  Biso   1.000  C
  C73      1.0000 0.48000  0.17410  0.56320  Biso   1.000  C
  C74      1.0000 0.02000  0.67410  0.93680  Biso   1.000  C
  C75      1.0000 0.52000  0.82590  0.43680  Biso   1.000  C
  C76      1.0000 0.98000  0.32590  0.06320  Biso   1.000  C
  H101     1.0000 0.43320  0.15590  0.59050  Biso   1.000  H
  H102     1.0000 0.06680  0.65590  0.90950  Biso   1.000  H
  H103     1.0000 0.56680  0.84410  0.40950  Biso   1.000  H
  H104     1.0000 0.93320  0.34410  0.09050  Biso   1.000  H
  C77      1.0000 0.56780  0.15730  0.53090  Biso   1.000  C
  C78      1.0000 0.93220  0.65730  0.96910  Biso   1.000  C
  C79      1.0000 0.43220  0.84270  0.46910  Biso   1.000  C
  C80      1.0000 0.06780  0.34270  0.03090  Biso   1.000  C
  H105     1.0000 0.58000  0.12770  0.53730  Biso   1.000  H
  H106     1.0000 0.92000  0.62770  0.96270  Biso   1.000  H
  H107     1.0000 0.42000  0.87230  0.46270  Biso   1.000  H
  H108     1.0000 0.08000  0.37230  0.03730  Biso   1.000  H
  C81      1.0000 0.63920  0.18360  0.48880  Biso   1.000  C
  C82      1.0000 0.86080  0.68360  0.01120  Biso   1.000  C
  C83      1.0000 0.36080  0.81640  0.51120  Biso   1.000  C
  C84      1.0000 0.13920  0.31640  0.98880  Biso   1.000  C
  H109     1.0000 0.69750  0.17130  0.46630  Biso   1.000  H
  H110     1.0000 0.80250  0.67130  0.03370  Biso   1.000  H
  H111     1.0000 0.30250  0.82870  0.53370  Biso   1.000  H
  H112     1.0000 0.19750  0.32870  0.96630  Biso   1.000  H
  C85      1.0000 0.62390  0.22750  0.48030  Biso   1.000  C
  C86      1.0000 0.87610  0.72750  0.01970  Biso   1.000  C
  C87      1.0000 0.37610  0.77250  0.51970  Biso   1.000  C
  C88      1.0000 0.12390  0.27250  0.98030  Biso   1.000  C
  C89      1.0000 0.53560  0.24480  0.51490  Biso   1.000  C
  C90      1.0000 0.96440  0.74480  0.98510  Biso   1.000  C
  C91      1.0000 0.46440  0.75520  0.48510  Biso   1.000  C
  C92      1.0000 0.03560  0.25520  0.01490  Biso   1.000  C
  C93      1.0000 0.70300  0.25630  0.43620  Biso   1.000  C
  C94      1.0000 0.79700  0.75630  0.06380  Biso   1.000  C
  C95      1.0000 0.29700  0.74370  0.56380  Biso   1.000  C
  C96      1.0000 0.20300  0.24370  0.93620  Biso   1.000  C
  H113     1.0000 0.72670  0.27650  0.48350  Biso   1.000  H
  H114     1.0000 0.77330  0.77650  0.01650  Biso   1.000  H
  H115     1.0000 0.27330  0.72350  0.51650  Biso   1.000  H
  H116     1.0000 0.22670  0.22350  0.98350  Biso   1.000  H
  H117     1.0000 0.75870  0.23810  0.41890  Biso   1.000  H
  H118     1.0000 0.74130  0.73810  0.08110  Biso   1.000  H
  H119     1.0000 0.24130  0.76190  0.58110  Biso   1.000  H
  H120     1.0000 0.25870  0.26190  0.91890  Biso   1.000  H
  C97      1.0000 0.67230  0.28190  0.35240  Biso   1.000  C
  C98      1.0000 0.82770  0.78190  0.14760  Biso   1.000  C
  C99      1.0000 0.32770  0.71810  0.64760  Biso   1.000  C
  C100     1.0000 0.17230  0.21810  0.85240  Biso   1.000  C
  C101     1.0000 0.69010  0.32740  0.34640  Biso   1.000  C
  C102     1.0000 0.80990  0.82740  0.15360  Biso   1.000  C
  C103     1.0000 0.30990  0.67260  0.65360  Biso   1.000  C
  C104     1.0000 0.19010  0.17260  0.84640  Biso   1.000  C
  H121     1.0000 0.72960  0.34140  0.39580  Biso   1.000  H
  H122     1.0000 0.77040  0.84140  0.10420  Biso   1.000  H
  H123     1.0000 0.27040  0.65860  0.60420  Biso   1.000  H
  H124     1.0000 0.22960  0.15860  0.89580  Biso   1.000  H
  C105     1.0000 0.66590  0.35120  0.26780  Biso   1.000  C
  C106     1.0000 0.83410  0.85120  0.23220  Biso   1.000  C
  C107     1.0000 0.33410  0.64880  0.73220  Biso   1.000  C
  C108     1.0000 0.16590  0.14880  0.76780  Biso   1.000  C
  H125     1.0000 0.69030  0.38100  0.26090  Biso   1.000  H
  H126     1.0000 0.80970  0.88100  0.23910  Biso   1.000  H
  H127     1.0000 0.30970  0.61900  0.73910  Biso   1.000  H
  H128     1.0000 0.19030  0.11900  0.76090  Biso   1.000  H
  C109     1.0000 0.62040  0.33040  0.19340  Biso   1.000  C
  C110     1.0000 0.87960  0.83040  0.30660  Biso   1.000  C
  C111     1.0000 0.37960  0.66960  0.80660  Biso   1.000  C
  C112     1.0000 0.12040  0.16960  0.69340  Biso   1.000  C
  H129     1.0000 0.60910  0.34690  0.13560  Biso   1.000  H
  H130     1.0000 0.89090  0.84690  0.36440  Biso   1.000  H
  H131     1.0000 0.39090  0.65310  0.86440  Biso   1.000  H
  H132     1.0000 0.10910  0.15310  0.63560  Biso   1.000  H
  C113     1.0000 0.59870  0.28650  0.19370  Biso   1.000  C
  C114     1.0000 0.90130  0.78650  0.30630  Biso   1.000  C
  C115     1.0000 0.40130  0.71350  0.80630  Biso   1.000  C
  C116     1.0000 0.09870  0.21350  0.69370  Biso   1.000  C
  C117     1.0000 0.62550  0.26280  0.27430  Biso   1.000  C
  C118     1.0000 0.87450  0.76280  0.22570  Biso   1.000  C
  C119     1.0000 0.37450  0.73720  0.72570  Biso   1.000  C
  C120     1.0000 0.12550  0.23720  0.77430  Biso   1.000  C
  C121     1.0000 0.55020  0.26530  0.10660  Biso   1.000  C
  C122     1.0000 0.94980  0.76530  0.39340  Biso   1.000  C
  C123     1.0000 0.44980  0.73470  0.89340  Biso   1.000  C
  C124     1.0000 0.05020  0.23470  0.60660  Biso   1.000  C
  H133     1.0000 0.52730  0.28820  0.06510  Biso   1.000  H
  H134     1.0000 0.97270  0.78820  0.43490  Biso   1.000  H
  H135     1.0000 0.47270  0.71180  0.93490  Biso   1.000  H
  H136     1.0000 0.02730  0.21180  0.56510  Biso   1.000  H
  H137     1.0000 0.60080  0.24890  0.07370  Biso   1.000  H
  H138     1.0000 0.89920  0.74890  0.42630  Biso   1.000  H
  H139     1.0000 0.39920  0.75110  0.92630  Biso   1.000  H
  H140     1.0000 0.10080  0.25110  0.57370  Biso   1.000  H
  C125     1.0000 0.46450  0.23550  0.12610  Biso   1.000  C
  C126     1.0000 0.03550  0.73550  0.37390  Biso   1.000  C
  C127     1.0000 0.53550  0.76450  0.87390  Biso   1.000  C
  C128     1.0000 0.96450  0.26450  0.62610  Biso   1.000  C
  C129     1.0000 0.46800  0.19290  0.09310  Biso   1.000  C
  C130     1.0000 0.03200  0.69290  0.40690  Biso   1.000  C
  C131     1.0000 0.53200  0.80710  0.90690  Biso   1.000  C
  C132     1.0000 0.96800  0.30710  0.59310  Biso   1.000  C
  H141     1.0000 0.52190  0.18360  0.05780  Biso   1.000  H
  H142     1.0000 0.97810  0.68360  0.44220  Biso   1.000  H
  H143     1.0000 0.47810  0.81640  0.94220  Biso   1.000  H
  H144     1.0000 0.02190  0.31640  0.55780  Biso   1.000  H
  C133     1.0000 0.39090  0.16440  0.11280  Biso   1.000  C
  C134     1.0000 0.10910  0.66440  0.38720  Biso   1.000  C
  C135     1.0000 0.60910  0.83560  0.88720  Biso   1.000  C
  C136     1.0000 0.89090  0.33560  0.61280  Biso   1.000  C
  H145     1.0000 0.39190  0.13630  0.08840  Biso   1.000  H
  H146     1.0000 0.10810  0.63630  0.41160  Biso   1.000  H
  H147     1.0000 0.60810  0.86370  0.91160  Biso   1.000  H
  H148     1.0000 0.89190  0.36370  0.58840  Biso   1.000  H
  C137     1.0000 0.30980  0.17780  0.17040  Biso   1.000  C
  C138     1.0000 0.19020  0.67780  0.32960  Biso   1.000  C
  C139     1.0000 0.69020  0.82220  0.82960  Biso   1.000  C
  C140     1.0000 0.80980  0.32220  0.67040  Biso   1.000  C
  H149     1.0000 0.26040  0.15800  0.18610  Biso   1.000  H
  H150     1.0000 0.23960  0.65800  0.31390  Biso   1.000  H
  H151     1.0000 0.73960  0.84200  0.81390  Biso   1.000  H
  H152     1.0000 0.76040  0.34200  0.68610  Biso   1.000  H
  C141     1.0000 0.30500  0.21980  0.20250  Biso   1.000  C
  C142     1.0000 0.19500  0.71980  0.29750  Biso   1.000  C
  C143     1.0000 0.69500  0.78020  0.79750  Biso   1.000  C
  C144     1.0000 0.80500  0.28020  0.70250  Biso   1.000  C
  C145     1.0000 0.38090  0.24830  0.17610  Biso   1.000  C
  C146     1.0000 0.11910  0.74830  0.32390  Biso   1.000  C
  C147     1.0000 0.61910  0.75170  0.82390  Biso   1.000  C
  C148     1.0000 0.88090  0.25170  0.67610  Biso   1.000  C
  C149     1.0000 0.21460  0.23500  0.25590  Biso   1.000  C
  C150     1.0000 0.28540  0.73500  0.24410  Biso   1.000  C
  C151     1.0000 0.78540  0.76500  0.74410  Biso   1.000  C
  C152     1.0000 0.71460  0.26500  0.75590  Biso   1.000  C
  H153     1.0000 0.17560  0.25380  0.21530  Biso   1.000  H
  H154     1.0000 0.32440  0.75380  0.28470  Biso   1.000  H
  H155     1.0000 0.82440  0.74620  0.78470  Biso   1.000  H
  H156     1.0000 0.67560  0.24620  0.71530  Biso   1.000  H
  H157     1.0000 0.17410  0.20990  0.27040  Biso   1.000  H
  H158     1.0000 0.32590  0.70990  0.22960  Biso   1.000  H
  H159     1.0000 0.82590  0.79010  0.72960  Biso   1.000  H
  H160     1.0000 0.67410  0.29010  0.77040  Biso   1.000  H
  C153     1.0000 0.32330  0.31690  0.13360  Biso   1.000  C
  C154     1.0000 0.17670  0.81690  0.36640  Biso   1.000  C
  C155     1.0000 0.67670  0.68310  0.86640  Biso   1.000  C
  C156     1.0000 0.82330  0.18310  0.63360  Biso   1.000  C
  H161     1.0000 0.25290  0.31060  0.13930  Biso   1.000  H
  H162     1.0000 0.24710  0.81060  0.36070  Biso   1.000  H
  H163     1.0000 0.74710  0.68940  0.86070  Biso   1.000  H
  H164     1.0000 0.75290  0.18940  0.63930  Biso   1.000  H
  H165     1.0000 0.34390  0.30820  0.07150  Biso   1.000  H
  H166     1.0000 0.15610  0.80820  0.42850  Biso   1.000  H
  H167     1.0000 0.65610  0.69180  0.92850  Biso   1.000  H
  H168     1.0000 0.84390  0.19180  0.57150  Biso   1.000  H
  C157     1.0000 0.33890  0.36300  0.14440  Biso   1.000  C
  C158     1.0000 0.16110  0.86300  0.35560  Biso   1.000  C
  C159     1.0000 0.66110  0.63700  0.85560  Biso   1.000  C
  C160     1.0000 0.83890  0.13700  0.64440  Biso   1.000  C
  H169     1.0000 0.40630  0.36990  0.12570  Biso   1.000  H
  H170     1.0000 0.09370  0.86990  0.37430  Biso   1.000  H
  H171     1.0000 0.59370  0.63010  0.87430  Biso   1.000  H
  H172     1.0000 0.90630  0.13010  0.62570  Biso   1.000  H
  H173     1.0000 0.29400  0.37830  0.10210  Biso   1.000  H
  H174     1.0000 0.20600  0.87830  0.39790  Biso   1.000  H
  H175     1.0000 0.70600  0.62170  0.89790  Biso   1.000  H
  H176     1.0000 0.79400  0.12170  0.60210  Biso   1.000  H
  C161     1.0000 0.32510  0.42560  0.24500  Biso   1.000  C
  C162     1.0000 0.17490  0.92560  0.25500  Biso   1.000  C
  C163     1.0000 0.67490  0.57440  0.75500  Biso   1.000  C
  C164     1.0000 0.82510  0.07440  0.74500  Biso   1.000  C
  H177     1.0000 0.26360  0.43740  0.21970  Biso   1.000  H
  H178     1.0000 0.23640  0.93740  0.28030  Biso   1.000  H
  H179     1.0000 0.73640  0.56260  0.78030  Biso   1.000  H
  H180     1.0000 0.76360  0.06260  0.71970  Biso   1.000  H
  H181     1.0000 0.37970  0.43740  0.20910  Biso   1.000  H
  H182     1.0000 0.12030  0.93740  0.29090  Biso   1.000  H
  H183     1.0000 0.62030  0.56260  0.79090  Biso   1.000  H
  H184     1.0000 0.87970  0.06260  0.70910  Biso   1.000  H
  C165     1.0000 0.33600  0.43880  0.34230  Biso   1.000  C
  C166     1.0000 0.16400  0.93880  0.15770  Biso   1.000  C
  C167     1.0000 0.66400  0.56120  0.65770  Biso   1.000  C
  C168     1.0000 0.83600  0.06120  0.84230  Biso   1.000  C
  H185     1.0000 0.33970  0.47030  0.34580  Biso   1.000  H
  H186     1.0000 0.16030  0.97030  0.15420  Biso   1.000  H
  H187     1.0000 0.66030  0.52970  0.65420  Biso   1.000  H
  H188     1.0000 0.83970  0.02970  0.84580  Biso   1.000  H
  H189     1.0000 0.27800  0.42960  0.37710  Biso   1.000  H
  H190     1.0000 0.22200  0.92960  0.12290  Biso   1.000  H
  H191     1.0000 0.72200  0.57040  0.62290  Biso   1.000  H
  H192     1.0000 0.77800  0.07040  0.87710  Biso   1.000  H
  C169     1.0000 0.44740  0.43870  0.47060  Biso   1.000  C
  C170     1.0000 0.05260  0.93870  0.02940  Biso   1.000  C
  C171     1.0000 0.55260  0.56130  0.52940  Biso   1.000  C
  C172     1.0000 0.94740  0.06130  0.97060  Biso   1.000  C
  H193     1.0000 0.40100  0.42940  0.51820  Biso   1.000  H
  H194     1.0000 0.09900  0.92940  0.98180  Biso   1.000  H
  H195     1.0000 0.59900  0.57060  0.48180  Biso   1.000  H
  H196     1.0000 0.90100  0.07060  0.01820  Biso   1.000  H
  H197     1.0000 0.44710  0.47030  0.46860  Biso   1.000  H
  H198     1.0000 0.05290  0.97030  0.03140  Biso   1.000  H
  H199     1.0000 0.55290  0.52970  0.53140  Biso   1.000  H
  H200     1.0000 0.94710  0.02970  0.96860  Biso   1.000  H
  C173     1.0000 0.54720  0.42310  0.49390  Biso   1.000  C
  C174     1.0000 0.95280  0.92310  0.00610  Biso   1.000  C
  C175     1.0000 0.45280  0.57690  0.50610  Biso   1.000  C
  C176     1.0000 0.04720  0.07690  0.99390  Biso   1.000  C
  H201     1.0000 0.59290  0.43390  0.44700  Biso   1.000  H
  H202     1.0000 0.90710  0.93390  0.05300  Biso   1.000  H
  H203     1.0000 0.40710  0.56610  0.55300  Biso   1.000  H
  H204     1.0000 0.09290  0.06610  0.94700  Biso   1.000  H
  H205     1.0000 0.56710  0.43560  0.55350  Biso   1.000  H
  H206     1.0000 0.93290  0.93560  0.94650  Biso   1.000  H
  H207     1.0000 0.43290  0.56440  0.44650  Biso   1.000  H
  H208     1.0000 0.06710  0.06440  0.05350  Biso   1.000  H
  C177     1.0000 0.52610  0.35880  0.58350  Biso   1.000  C
  C178     1.0000 0.97390  0.85880  0.91650  Biso   1.000  C
  C179     1.0000 0.47390  0.64120  0.41650  Biso   1.000  C
  C180     1.0000 0.02610  0.14120  0.08350  Biso   1.000  C
  H209     1.0000 0.45420  0.36060  0.58800  Biso   1.000  H
  H210     1.0000 0.04580  0.86060  0.91200  Biso   1.000  H
  H211     1.0000 0.54580  0.63940  0.41200  Biso   1.000  H
  H212     1.0000 0.95420  0.13940  0.08800  Biso   1.000  H
  H213     1.0000 0.55480  0.37470  0.63570  Biso   1.000  H
  H214     1.0000 0.94520  0.87470  0.86430  Biso   1.000  H
  H215     1.0000 0.44520  0.62530  0.36430  Biso   1.000  H
  H216     1.0000 0.05480  0.12530  0.13570  Biso   1.000  H
  C181     1.0000 0.55620  0.31400  0.58860  Biso   1.000  C
  C182     1.0000 0.94380  0.81400  0.91140  Biso   1.000  C
  C183     1.0000 0.44380  0.68600  0.41140  Biso   1.000  C
  C184     1.0000 0.05620  0.18600  0.08860  Biso   1.000  C
  H217     1.0000 0.62830  0.31230  0.58980  Biso   1.000  H
  H218     1.0000 0.87170  0.81230  0.91020  Biso   1.000  H
  H219     1.0000 0.37170  0.68770  0.41020  Biso   1.000  H
  H220     1.0000 0.12830  0.18770  0.08980  Biso   1.000  H
  H221     1.0000 0.53160  0.30110  0.64590  Biso   1.000  H
  H222     1.0000 0.96840  0.80110  0.85410  Biso   1.000  H
  H223     1.0000 0.46840  0.69890  0.35410  Biso   1.000  H
  H224     1.0000 0.03160  0.19890  0.14590  Biso   1.000  H
  N1       1.0000 0.95130  0.29240  0.32630  Biso   1.000  N
  N2       1.0000 0.54870  0.79240  0.17370  Biso   1.000  N
  N3       1.0000 0.04870  0.70760  0.67370  Biso   1.000  N
  N4       1.0000 0.45130  0.20760  0.82630  Biso   1.000  N
  C185     1.0000 0.99500  0.38210  0.37740  Biso   1.000  C
  C186     1.0000 0.50500  0.88210  0.12260  Biso   1.000  C
  C187     1.0000 0.00500  0.61790  0.62260  Biso   1.000  C
  C188     1.0000 0.49500  0.11790  0.87740  Biso   1.000  C
  H225     1.0000 0.97390  0.40320  0.33200  Biso   1.000  H
  H226     1.0000 0.52610  0.90320  0.16800  Biso   1.000  H
  H227     1.0000 0.02610  0.59680  0.66800  Biso   1.000  H
  H228     1.0000 0.47390  0.09680  0.83200  Biso   1.000  H
  H229     1.0000 0.06570  0.38390  0.38600  Biso   1.000  H
  H230     1.0000 0.43430  0.88390  0.11400  Biso   1.000  H
  H231     1.0000 0.93430  0.61610  0.61400  Biso   1.000  H
  H232     1.0000 0.56570  0.11610  0.88600  Biso   1.000  H
  H233     1.0000 0.96260  0.38770  0.43590  Biso   1.000  H
  H234     1.0000 0.53740  0.88770  0.06410  Biso   1.000  H
  H235     1.0000 0.03740  0.61230  0.56410  Biso   1.000  H
  H236     1.0000 0.46260  0.11230  0.93590  Biso   1.000  H
  C189     1.0000 0.97200  0.34490  0.34900  Biso   1.000  C
  C190     1.0000 0.52800  0.84490  0.15100  Biso   1.000  C
  C191     1.0000 0.02800  0.65510  0.65100  Biso   1.000  C
  C192     1.0000 0.47200  0.15510  0.84900  Biso   1.000  C
  N5       1.0000 0.65870  0.92690  0.31640  Biso   1.000  N
  N6       1.0000 0.84130  0.42690  0.18360  Biso   1.000  N
  N7       1.0000 0.34130  0.07310  0.68360  Biso   1.000  N
  N8       1.0000 0.15870  0.57310  0.81640  Biso   1.000  N
  C193     1.0000 0.49300  0.95100  0.38970  Biso   1.000  C
  C194     1.0000 0.00700  0.45100  0.11030  Biso   1.000  C
  C195     1.0000 0.50700  0.04900  0.61030  Biso   1.000  C
  C196     1.0000 0.99300  0.54900  0.88970  Biso   1.000  C
  H237     1.0000 0.49370  0.98060  0.41150  Biso   1.000  H
  H238     1.0000 0.00630  0.48060  0.08850  Biso   1.000  H
  H239     1.0000 0.50630  0.01940  0.58850  Biso   1.000  H
  H240     1.0000 0.99370  0.51940  0.91150  Biso   1.000  H
  H241     1.0000 0.48080  0.93180  0.44130  Biso   1.000  H
  H242     1.0000 0.01920  0.43180  0.05870  Biso   1.000  H
  H243     1.0000 0.51920  0.06820  0.55870  Biso   1.000  H
  H244     1.0000 0.98080  0.56820  0.94130  Biso   1.000  H
  H245     1.0000 0.44170  0.94750  0.34340  Biso   1.000  H
  H246     1.0000 0.05830  0.44750  0.15660  Biso   1.000  H
  H247     1.0000 0.55830  0.05250  0.65660  Biso   1.000  H
  H248     1.0000 0.94170  0.55250  0.84340  Biso   1.000  H
  C197     1.0000 0.59200  0.94030  0.34700  Biso   1.000  C
  C198     1.0000 0.90800  0.44030  0.15300  Biso   1.000  C
  C199     1.0000 0.40800  0.05970  0.65300  Biso   1.000  C
  C200     1.0000 0.09200  0.55970  0.84700  Biso   1.000  C
