data_image0
_cell_length_a       19.069
_cell_length_b       20.4124
_cell_length_c       15.6455
_cell_angle_alpha    90
_cell_angle_beta     90
_cell_angle_gamma    90

_symmetry_space_group_name_H-M    "P 1"
_symmetry_int_tables_number       1

loop_
  _symmetry_equiv_pos_as_xyz
  'x, y, z'

loop_
  _atom_site_label
  _atom_site_occupancy
  _atom_site_fract_x
  _atom_site_fract_y
  _atom_site_fract_z
  _atom_site_thermal_displace_type
  _atom_site_B_iso_or_equiv
  _atom_site_type_symbol
  Cu1      1.0000 0.66868  0.24949  0.04083  Biso   1.000  Cu
  Cu2      1.0000 0.33132  0.75051  0.54083  Biso   1.000  Cu
  Cu3      1.0000 0.16868  0.25051  0.04083  Biso   1.000  Cu
  Cu4      1.0000 0.83132  0.74949  0.54083  Biso   1.000  Cu
  Hg1      1.0000 0.66423  0.25619  0.81302  Biso   1.000  Hg
  Hg2      1.0000 0.33577  0.74381  0.31302  Biso   1.000  Hg
  Hg3      1.0000 0.16423  0.24381  0.81302  Biso   1.000  Hg
  Hg4      1.0000 0.83577  0.75619  0.31302  Biso   1.000  Hg
  K1       1.0000 0.41612  0.33521  0.50784  Biso   1.000  K
  K2       1.0000 0.58388  0.66479  0.00784  Biso   1.000  K
  K3       1.0000 0.91612  0.16479  0.50784  Biso   1.000  K
  K4       1.0000 0.08388  0.83521  0.00784  Biso   1.000  K
  I1       1.0000 0.76969  0.20869  0.93011  Biso   1.000  I
  I2       1.0000 0.23031  0.79131  0.43011  Biso   1.000  I
  I3       1.0000 0.26969  0.29131  0.93011  Biso   1.000  I
  I4       1.0000 0.73031  0.70869  0.43011  Biso   1.000  I
  I5       1.0000 0.56295  0.29310  0.94117  Biso   1.000  I
  I6       1.0000 0.43705  0.70690  0.44117  Biso   1.000  I
  I7       1.0000 0.06295  0.20690  0.94117  Biso   1.000  I
  I8       1.0000 0.93705  0.79310  0.44117  Biso   1.000  I
  I9       1.0000 0.61363  0.14734  0.73499  Biso   1.000  I
  I10      1.0000 0.38637  0.85266  0.23499  Biso   1.000  I
  I11      1.0000 0.11363  0.35266  0.73499  Biso   1.000  I
  I12      1.0000 0.88637  0.64734  0.23499  Biso   1.000  I
  I13      1.0000 0.70921  0.36885  0.74021  Biso   1.000  I
  I14      1.0000 0.29079  0.63115  0.24021  Biso   1.000  I
  I15      1.0000 0.20921  0.13115  0.74021  Biso   1.000  I
  I16      1.0000 0.79079  0.86885  0.24021  Biso   1.000  I
  S1       1.0000 0.63363  0.15467  0.10388  Biso   1.000  S
  S2       1.0000 0.36637  0.84533  0.60388  Biso   1.000  S
  S3       1.0000 0.13363  0.34533  0.10388  Biso   1.000  S
  S4       1.0000 0.86637  0.65467  0.60388  Biso   1.000  S
  S5       1.0000 0.20974  0.15615  0.10218  Biso   1.000  S
  S6       1.0000 0.79026  0.84385  0.60218  Biso   1.000  S
  S7       1.0000 0.70974  0.34385  0.10218  Biso   1.000  S
  S8       1.0000 0.29026  0.65615  0.60218  Biso   1.000  S
  O1       1.0000 0.52440  0.22690  0.29790  Biso   1.000  O
  O2       1.0000 0.47560  0.77310  0.79790  Biso   1.000  O
  O3       1.0000 0.02440  0.27310  0.29790  Biso   1.000  O
  O4       1.0000 0.97560  0.72690  0.79790  Biso   1.000  O
  O5       1.0000 0.49560  0.05460  0.05700  Biso   1.000  O
  O6       1.0000 0.50440  0.94540  0.55700  Biso   1.000  O
  O7       1.0000 0.99560  0.44540  0.05700  Biso   1.000  O
  O8       1.0000 0.00440  0.55460  0.55700  Biso   1.000  O
  O9       1.0000 0.34960  0.05680  0.06290  Biso   1.000  O
  O10      1.0000 0.65040  0.94320  0.56290  Biso   1.000  O
  O11      1.0000 0.84960  0.44320  0.06290  Biso   1.000  O
  O12      1.0000 0.15040  0.55680  0.56290  Biso   1.000  O
  O13      1.0000 0.30370  0.23350  0.30470  Biso   1.000  O
  O14      1.0000 0.69630  0.76650  0.80470  Biso   1.000  O
  O15      1.0000 0.80370  0.26650  0.30470  Biso   1.000  O
  O16      1.0000 0.19630  0.73350  0.80470  Biso   1.000  O
  O17      1.0000 0.40700  0.20050  0.52220  Biso   1.000  O
  O18      1.0000 0.59300  0.79950  0.02220  Biso   1.000  O
  O19      1.0000 0.90700  0.29950  0.52220  Biso   1.000  O
  O20      1.0000 0.09300  0.70050  0.02220  Biso   1.000  O
  O21      1.0000 0.43370  0.27260  0.66500  Biso   1.000  O
  O22      1.0000 0.56630  0.72740  0.16500  Biso   1.000  O
  O23      1.0000 0.93370  0.22740  0.66500  Biso   1.000  O
  O24      1.0000 0.06630  0.77260  0.16500  Biso   1.000  O
  O25      1.0000 0.44340  0.40880  0.65710  Biso   1.000  O
  O26      1.0000 0.55660  0.59120  0.15710  Biso   1.000  O
  O27      1.0000 0.94340  0.09120  0.65710  Biso   1.000  O
  O28      1.0000 0.05660  0.90880  0.15710  Biso   1.000  O
  O29      1.0000 0.44000  0.47310  0.49980  Biso   1.000  O
  O30      1.0000 0.56000  0.52690  0.99980  Biso   1.000  O
  O31      1.0000 0.94000  0.02690  0.49980  Biso   1.000  O
  O32      1.0000 0.06000  0.97310  0.99980  Biso   1.000  O
  O33      1.0000 0.41470  0.40310  0.35580  Biso   1.000  O
  O34      1.0000 0.58530  0.59690  0.85580  Biso   1.000  O
  O35      1.0000 0.91470  0.09690  0.35580  Biso   1.000  O
  O36      1.0000 0.08530  0.90310  0.85580  Biso   1.000  O
  C1       1.0000 0.58220  0.20900  0.24580  Biso   1.000  C
  C2       1.0000 0.41780  0.79100  0.74580  Biso   1.000  C
  C3       1.0000 0.08220  0.29100  0.24580  Biso   1.000  C
  C4       1.0000 0.91780  0.70900  0.74580  Biso   1.000  C
  H1       1.0000 0.61560  0.18220  0.27930  Biso   1.000  H
  H2       1.0000 0.38440  0.81780  0.77930  Biso   1.000  H
  H3       1.0000 0.11560  0.31780  0.27930  Biso   1.000  H
  H4       1.0000 0.88440  0.68220  0.77930  Biso   1.000  H
  H5       1.0000 0.60690  0.24880  0.22610  Biso   1.000  H
  H6       1.0000 0.39310  0.75120  0.72610  Biso   1.000  H
  H7       1.0000 0.10690  0.25120  0.22610  Biso   1.000  H
  H8       1.0000 0.89310  0.74880  0.72610  Biso   1.000  H
  C5       1.0000 0.55640  0.17040  0.16990  Biso   1.000  C
  C6       1.0000 0.44360  0.82960  0.66990  Biso   1.000  C
  C7       1.0000 0.05640  0.32960  0.16990  Biso   1.000  C
  C8       1.0000 0.94360  0.67040  0.66990  Biso   1.000  C
  H9       1.0000 0.52110  0.19590  0.13750  Biso   1.000  H
  H10      1.0000 0.47890  0.80410  0.63750  Biso   1.000  H
  H11      1.0000 0.02110  0.30410  0.13750  Biso   1.000  H
  H12      1.0000 0.97890  0.69590  0.63750  Biso   1.000  H
  H13      1.0000 0.53480  0.12870  0.18860  Biso   1.000  H
  H14      1.0000 0.46520  0.87130  0.68860  Biso   1.000  H
  H15      1.0000 0.03480  0.37130  0.18860  Biso   1.000  H
  H16      1.0000 0.96520  0.62870  0.68860  Biso   1.000  H
  C9       1.0000 0.60280  0.10460  0.01710  Biso   1.000  C
  C10      1.0000 0.39720  0.89540  0.51710  Biso   1.000  C
  C11      1.0000 0.10280  0.39540  0.01710  Biso   1.000  C
  C12      1.0000 0.89720  0.60460  0.51710  Biso   1.000  C
  H17      1.0000 0.56970  0.13070  0.98210  Biso   1.000  H
  H18      1.0000 0.43030  0.86930  0.48210  Biso   1.000  H
  H19      1.0000 0.06970  0.36930  0.98210  Biso   1.000  H
  H20      1.0000 0.93030  0.63070  0.48210  Biso   1.000  H
  H21      1.0000 0.64320  0.09300  0.98030  Biso   1.000  H
  H22      1.0000 0.35680  0.90700  0.48030  Biso   1.000  H
  H23      1.0000 0.14320  0.40700  0.98030  Biso   1.000  H
  H24      1.0000 0.85680  0.59300  0.48030  Biso   1.000  H
  C13      1.0000 0.56580  0.04090  0.04570  Biso   1.000  C
  C14      1.0000 0.43420  0.95910  0.54570  Biso   1.000  C
  C15      1.0000 0.06580  0.45910  0.04570  Biso   1.000  C
  C16      1.0000 0.93420  0.54090  0.54570  Biso   1.000  C
  H25      1.0000 0.57180  0.00650  0.00170  Biso   1.000  H
  H26      1.0000 0.42820  0.99350  0.50170  Biso   1.000  H
  H27      1.0000 0.07180  0.49350  0.00170  Biso   1.000  H
  H28      1.0000 0.92820  0.50650  0.50170  Biso   1.000  H
  H29      1.0000 0.58650  0.02500  0.09990  Biso   1.000  H
  H30      1.0000 0.41350  0.97500  0.59990  Biso   1.000  H
  H31      1.0000 0.08650  0.47500  0.09990  Biso   1.000  H
  H32      1.0000 0.91350  0.52500  0.59990  Biso   1.000  H
  C17      1.0000 0.45500  0.00690  0.10030  Biso   1.000  C
  C18      1.0000 0.54500  0.99310  0.60030  Biso   1.000  C
  C19      1.0000 0.95500  0.49310  0.10030  Biso   1.000  C
  C20      1.0000 0.04500  0.50690  0.60030  Biso   1.000  C
  H33      1.0000 0.44840  0.02090  0.16040  Biso   1.000  H
  H34      1.0000 0.55160  0.97910  0.66040  Biso   1.000  H
  H35      1.0000 0.94840  0.47910  0.16040  Biso   1.000  H
  H36      1.0000 0.05160  0.52090  0.66040  Biso   1.000  H
  H37      1.0000 0.48090  0.96490  0.10080  Biso   1.000  H
  H38      1.0000 0.51910  0.03510  0.60080  Biso   1.000  H
  H39      1.0000 0.98090  0.53510  0.10080  Biso   1.000  H
  H40      1.0000 0.01910  0.46490  0.60080  Biso   1.000  H
  C21      1.0000 0.38510  0.99650  0.06030  Biso   1.000  C
  C22      1.0000 0.61490  0.00350  0.56030  Biso   1.000  C
  C23      1.0000 0.88510  0.50350  0.06030  Biso   1.000  C
  C24      1.0000 0.11490  0.49650  0.56030  Biso   1.000  C
  H41      1.0000 0.39060  0.98160  0.00050  Biso   1.000  H
  H42      1.0000 0.60940  0.01840  0.50050  Biso   1.000  H
  H43      1.0000 0.89060  0.51840  0.00050  Biso   1.000  H
  H44      1.0000 0.10940  0.48160  0.50050  Biso   1.000  H
  H45      1.0000 0.35840  0.96280  0.09220  Biso   1.000  H
  H46      1.0000 0.64160  0.03720  0.59220  Biso   1.000  H
  H47      1.0000 0.85840  0.53720  0.09220  Biso   1.000  H
  H48      1.0000 0.14160  0.46280  0.59220  Biso   1.000  H
  C25      1.0000 0.28490  0.05030  0.02640  Biso   1.000  C
  C26      1.0000 0.71510  0.94970  0.52640  Biso   1.000  C
  C27      1.0000 0.78490  0.44970  0.02640  Biso   1.000  C
  C28      1.0000 0.21510  0.55030  0.52640  Biso   1.000  C
  H49      1.0000 0.25390  0.02420  0.06400  Biso   1.000  H
  H50      1.0000 0.74610  0.97580  0.56400  Biso   1.000  H
  H51      1.0000 0.75390  0.47580  0.06400  Biso   1.000  H
  H52      1.0000 0.24610  0.52420  0.56400  Biso   1.000  H
  H53      1.0000 0.28900  0.02740  0.97080  Biso   1.000  H
  H54      1.0000 0.71100  0.97260  0.47080  Biso   1.000  H
  H55      1.0000 0.78900  0.47260  0.97080  Biso   1.000  H
  H56      1.0000 0.21100  0.52740  0.47080  Biso   1.000  H
  C29      1.0000 0.25400  0.11950  0.01310  Biso   1.000  C
  C30      1.0000 0.74600  0.88050  0.51310  Biso   1.000  C
  C31      1.0000 0.75400  0.38050  0.01310  Biso   1.000  C
  C32      1.0000 0.24600  0.61950  0.51310  Biso   1.000  C
  H57      1.0000 0.22060  0.11750  0.96480  Biso   1.000  H
  H58      1.0000 0.77940  0.88250  0.46480  Biso   1.000  H
  H59      1.0000 0.72060  0.38250  0.96480  Biso   1.000  H
  H60      1.0000 0.27940  0.61750  0.46480  Biso   1.000  H
  H61      1.0000 0.29270  0.14910  0.99590  Biso   1.000  H
  H62      1.0000 0.70730  0.85090  0.49590  Biso   1.000  H
  H63      1.0000 0.79270  0.35090  0.99590  Biso   1.000  H
  H64      1.0000 0.20730  0.64910  0.49590  Biso   1.000  H
  C33      1.0000 0.28180  0.17550  0.17560  Biso   1.000  C
  C34      1.0000 0.71820  0.82450  0.67560  Biso   1.000  C
  C35      1.0000 0.78180  0.32450  0.17560  Biso   1.000  C
  C36      1.0000 0.21820  0.67550  0.67560  Biso   1.000  C
  H65      1.0000 0.30360  0.13480  0.19770  Biso   1.000  H
  H66      1.0000 0.69640  0.86520  0.69770  Biso   1.000  H
  H67      1.0000 0.80360  0.36520  0.19770  Biso   1.000  H
  H68      1.0000 0.19640  0.63480  0.69770  Biso   1.000  H
  H69      1.0000 0.31830  0.20170  0.14630  Biso   1.000  H
  H70      1.0000 0.68170  0.79830  0.64630  Biso   1.000  H
  H71      1.0000 0.81830  0.29830  0.14630  Biso   1.000  H
  H72      1.0000 0.18170  0.70170  0.64630  Biso   1.000  H
  C37      1.0000 0.24920  0.21390  0.24680  Biso   1.000  C
  C38      1.0000 0.75080  0.78610  0.74680  Biso   1.000  C
  C39      1.0000 0.74920  0.28610  0.24680  Biso   1.000  C
  C40      1.0000 0.25080  0.71390  0.74680  Biso   1.000  C
  H73      1.0000 0.22510  0.25310  0.22370  Biso   1.000  H
  H74      1.0000 0.77490  0.74690  0.72370  Biso   1.000  H
  H75      1.0000 0.72510  0.24690  0.22370  Biso   1.000  H
  H76      1.0000 0.27490  0.75310  0.72370  Biso   1.000  H
  H77      1.0000 0.21420  0.18670  0.27720  Biso   1.000  H
  H78      1.0000 0.78580  0.81330  0.77720  Biso   1.000  H
  H79      1.0000 0.71420  0.31330  0.27720  Biso   1.000  H
  H80      1.0000 0.28580  0.68670  0.77720  Biso   1.000  H
  C41      1.0000 0.27910  0.26970  0.37350  Biso   1.000  C
  C42      1.0000 0.72090  0.73030  0.87350  Biso   1.000  C
  C43      1.0000 0.77910  0.23030  0.37350  Biso   1.000  C
  C44      1.0000 0.22090  0.76970  0.87350  Biso   1.000  C
  C45      1.0000 0.27040  0.33930  0.36620  Biso   1.000  C
  C46      1.0000 0.72960  0.66070  0.86620  Biso   1.000  C
  C47      1.0000 0.77040  0.16070  0.36620  Biso   1.000  C
  C48      1.0000 0.22960  0.83930  0.86620  Biso   1.000  C
  C49      1.0000 0.24800  0.37320  0.43550  Biso   1.000  C
  C50      1.0000 0.75200  0.62680  0.93550  Biso   1.000  C
  C51      1.0000 0.74800  0.12680  0.43550  Biso   1.000  C
  C52      1.0000 0.25200  0.87320  0.93550  Biso   1.000  C
  H81      1.0000 0.23450  0.42020  0.42870  Biso   1.000  H
  H82      1.0000 0.76550  0.57980  0.92870  Biso   1.000  H
  H83      1.0000 0.73450  0.07980  0.42870  Biso   1.000  H
  H84      1.0000 0.26550  0.92020  0.92870  Biso   1.000  H
  C53      1.0000 0.23540  0.34200  0.51360  Biso   1.000  C
  C54      1.0000 0.76460  0.65800  0.01360  Biso   1.000  C
  C55      1.0000 0.73540  0.15800  0.51360  Biso   1.000  C
  C56      1.0000 0.26460  0.84200  0.01360  Biso   1.000  C
  H85      1.0000 0.21100  0.36590  0.56080  Biso   1.000  H
  H86      1.0000 0.78900  0.63410  0.06080  Biso   1.000  H
  H87      1.0000 0.71100  0.13410  0.56080  Biso   1.000  H
  H88      1.0000 0.28900  0.86590  0.06080  Biso   1.000  H
  C57      1.0000 0.24550  0.27490  0.51870  Biso   1.000  C
  C58      1.0000 0.75450  0.72510  0.01870  Biso   1.000  C
  C59      1.0000 0.74550  0.22510  0.51870  Biso   1.000  C
  C60      1.0000 0.25450  0.77490  0.01870  Biso   1.000  C
  H89      1.0000 0.23070  0.25210  0.57230  Biso   1.000  H
  H90      1.0000 0.76930  0.74790  0.07230  Biso   1.000  H
  H91      1.0000 0.73070  0.24790  0.57230  Biso   1.000  H
  H92      1.0000 0.26930  0.75210  0.07230  Biso   1.000  H
  C61      1.0000 0.26710  0.23680  0.45050  Biso   1.000  C
  C62      1.0000 0.73290  0.76320  0.95050  Biso   1.000  C
  C63      1.0000 0.76710  0.26320  0.45050  Biso   1.000  C
  C64      1.0000 0.23290  0.73680  0.95050  Biso   1.000  C
  C65      1.0000 0.27480  0.16380  0.45820  Biso   1.000  C
  C66      1.0000 0.72520  0.83620  0.95820  Biso   1.000  C
  C67      1.0000 0.77480  0.33620  0.45820  Biso   1.000  C
  C68      1.0000 0.22520  0.66380  0.95820  Biso   1.000  C
  H93      1.0000 0.26870  0.15220  0.51920  Biso   1.000  H
  H94      1.0000 0.73130  0.84780  0.01920  Biso   1.000  H
  H95      1.0000 0.76870  0.34780  0.51920  Biso   1.000  H
  H96      1.0000 0.23130  0.65220  0.01920  Biso   1.000  H
  H97      1.0000 0.23550  0.14340  0.42650  Biso   1.000  H
  H98      1.0000 0.76450  0.85660  0.92650  Biso   1.000  H
  H99      1.0000 0.73550  0.35660  0.42650  Biso   1.000  H
  H100     1.0000 0.26450  0.64340  0.92650  Biso   1.000  H
  C69      1.0000 0.34090  0.13270  0.42810  Biso   1.000  C
  C70      1.0000 0.65910  0.86730  0.92810  Biso   1.000  C
  C71      1.0000 0.84090  0.36730  0.42810  Biso   1.000  C
  C72      1.0000 0.15910  0.63270  0.92810  Biso   1.000  C
  C73      1.0000 0.33880  0.08500  0.36580  Biso   1.000  C
  C74      1.0000 0.66120  0.91500  0.86580  Biso   1.000  C
  C75      1.0000 0.83880  0.41500  0.36580  Biso   1.000  C
  C76      1.0000 0.16120  0.58500  0.86580  Biso   1.000  C
  H101     1.0000 0.29470  0.07140  0.34390  Biso   1.000  H
  H102     1.0000 0.70530  0.92860  0.84390  Biso   1.000  H
  H103     1.0000 0.79470  0.42860  0.34390  Biso   1.000  H
  H104     1.0000 0.20530  0.57140  0.84390  Biso   1.000  H
  C77      1.0000 0.39980  0.05630  0.33410  Biso   1.000  C
  C78      1.0000 0.60020  0.94370  0.83410  Biso   1.000  C
  C79      1.0000 0.89980  0.44370  0.33410  Biso   1.000  C
  C80      1.0000 0.10020  0.55630  0.83410  Biso   1.000  C
  H105     1.0000 0.39760  0.02080  0.29500  Biso   1.000  H
  H106     1.0000 0.60240  0.97920  0.79500  Biso   1.000  H
  H107     1.0000 0.89760  0.47920  0.29500  Biso   1.000  H
  H108     1.0000 0.10240  0.52080  0.79500  Biso   1.000  H
  C81      1.0000 0.46350  0.08080  0.36110  Biso   1.000  C
  C82      1.0000 0.53650  0.91920  0.86110  Biso   1.000  C
  C83      1.0000 0.96350  0.41920  0.36110  Biso   1.000  C
  C84      1.0000 0.03650  0.58080  0.86110  Biso   1.000  C
  H109     1.0000 0.50530  0.06370  0.33660  Biso   1.000  H
  H110     1.0000 0.49470  0.93630  0.83660  Biso   1.000  H
  H111     1.0000 0.00530  0.43630  0.33660  Biso   1.000  H
  H112     1.0000 0.99470  0.56370  0.83660  Biso   1.000  H
  C85      1.0000 0.46890  0.12990  0.42300  Biso   1.000  C
  C86      1.0000 0.53110  0.87010  0.92300  Biso   1.000  C
  C87      1.0000 0.96890  0.37010  0.42300  Biso   1.000  C
  C88      1.0000 0.03110  0.62990  0.92300  Biso   1.000  C
  C89      1.0000 0.40530  0.15350  0.45760  Biso   1.000  C
  C90      1.0000 0.59470  0.84650  0.95760  Biso   1.000  C
  C91      1.0000 0.90530  0.34650  0.45760  Biso   1.000  C
  C92      1.0000 0.09470  0.65350  0.95760  Biso   1.000  C
  C93      1.0000 0.53900  0.15570  0.45230  Biso   1.000  C
  C94      1.0000 0.46100  0.84430  0.95230  Biso   1.000  C
  C95      1.0000 0.03900  0.34430  0.45230  Biso   1.000  C
  C96      1.0000 0.96100  0.65570  0.95230  Biso   1.000  C
  H113     1.0000 0.54580  0.14200  0.51240  Biso   1.000  H
  H114     1.0000 0.45420  0.85800  0.01240  Biso   1.000  H
  H115     1.0000 0.04580  0.35800  0.51240  Biso   1.000  H
  H116     1.0000 0.95420  0.64200  0.01240  Biso   1.000  H
  H117     1.0000 0.57580  0.13390  0.41800  Biso   1.000  H
  H118     1.0000 0.42420  0.86610  0.91800  Biso   1.000  H
  H119     1.0000 0.07580  0.36610  0.41800  Biso   1.000  H
  H120     1.0000 0.92420  0.63390  0.91800  Biso   1.000  H
  C97      1.0000 0.55130  0.22800  0.44750  Biso   1.000  C
  C98      1.0000 0.44870  0.77200  0.94750  Biso   1.000  C
  C99      1.0000 0.05130  0.27200  0.44750  Biso   1.000  C
  C100     1.0000 0.94870  0.72800  0.94750  Biso   1.000  C
  C101     1.0000 0.57230  0.26490  0.51960  Biso   1.000  C
  C102     1.0000 0.42770  0.73510  0.01960  Biso   1.000  C
  C103     1.0000 0.07230  0.23510  0.51960  Biso   1.000  C
  C104     1.0000 0.92770  0.76490  0.01960  Biso   1.000  C
  H121     1.0000 0.58610  0.24150  0.57320  Biso   1.000  H
  H122     1.0000 0.41390  0.75850  0.07320  Biso   1.000  H
  H123     1.0000 0.08610  0.25850  0.57320  Biso   1.000  H
  H124     1.0000 0.91390  0.74150  0.07320  Biso   1.000  H
  C105     1.0000 0.58290  0.32800  0.51340  Biso   1.000  C
  C106     1.0000 0.41710  0.67200  0.01340  Biso   1.000  C
  C107     1.0000 0.08290  0.17200  0.51340  Biso   1.000  C
  C108     1.0000 0.91710  0.82800  0.01340  Biso   1.000  C
  H125     1.0000 0.60710  0.35020  0.56220  Biso   1.000  H
  H126     1.0000 0.39290  0.64980  0.06220  Biso   1.000  H
  H127     1.0000 0.10710  0.14980  0.56220  Biso   1.000  H
  H128     1.0000 0.89290  0.85020  0.06220  Biso   1.000  H
  C109     1.0000 0.57610  0.36240  0.43950  Biso   1.000  C
  C110     1.0000 0.42390  0.63760  0.93950  Biso   1.000  C
  C111     1.0000 0.07610  0.13760  0.43950  Biso   1.000  C
  C112     1.0000 0.92390  0.86240  0.93950  Biso   1.000  C
  H129     1.0000 0.59400  0.40840  0.43680  Biso   1.000  H
  H130     1.0000 0.40600  0.59160  0.93680  Biso   1.000  H
  H131     1.0000 0.09400  0.09160  0.43680  Biso   1.000  H
  H132     1.0000 0.90600  0.90840  0.93680  Biso   1.000  H
  C113     1.0000 0.55510  0.33060  0.36260  Biso   1.000  C
  C114     1.0000 0.44490  0.66940  0.86260  Biso   1.000  C
  C115     1.0000 0.05510  0.16940  0.36260  Biso   1.000  C
  C116     1.0000 0.94490  0.83060  0.86260  Biso   1.000  C
  C117     1.0000 0.54400  0.26160  0.36910  Biso   1.000  C
  C118     1.0000 0.45600  0.73840  0.86910  Biso   1.000  C
  C119     1.0000 0.04400  0.23840  0.36910  Biso   1.000  C
  C120     1.0000 0.95600  0.76160  0.86910  Biso   1.000  C
  C121     1.0000 0.54780  0.36780  0.28250  Biso   1.000  C
  C122     1.0000 0.45220  0.63220  0.78250  Biso   1.000  C
  C123     1.0000 0.04780  0.13220  0.28250  Biso   1.000  C
  C124     1.0000 0.95220  0.86780  0.78250  Biso   1.000  C
  H133     1.0000 0.58590  0.35450  0.24320  Biso   1.000  H
  H134     1.0000 0.41410  0.64550  0.74320  Biso   1.000  H
  H135     1.0000 0.08590  0.14550  0.24320  Biso   1.000  H
  H136     1.0000 0.91410  0.85450  0.74320  Biso   1.000  H
  H137     1.0000 0.55410  0.41490  0.29520  Biso   1.000  H
  H138     1.0000 0.44590  0.58510  0.79520  Biso   1.000  H
  H139     1.0000 0.05410  0.08510  0.29520  Biso   1.000  H
  H140     1.0000 0.94590  0.91490  0.79520  Biso   1.000  H
  C125     1.0000 0.47820  0.35880  0.23680  Biso   1.000  C
  C126     1.0000 0.52180  0.64120  0.73680  Biso   1.000  C
  C127     1.0000 0.97820  0.14120  0.23680  Biso   1.000  C
  C128     1.0000 0.02180  0.85880  0.73680  Biso   1.000  C
  C129     1.0000 0.47710  0.33420  0.15160  Biso   1.000  C
  C130     1.0000 0.52290  0.66580  0.65160  Biso   1.000  C
  C131     1.0000 0.97710  0.16580  0.15160  Biso   1.000  C
  C132     1.0000 0.02290  0.83420  0.65160  Biso   1.000  C
  H141     1.0000 0.51980  0.32520  0.12240  Biso   1.000  H
  H142     1.0000 0.48020  0.67480  0.62240  Biso   1.000  H
  H143     1.0000 0.01980  0.17480  0.12240  Biso   1.000  H
  H144     1.0000 0.98020  0.82520  0.62240  Biso   1.000  H
  C133     1.0000 0.41470  0.32370  0.11260  Biso   1.000  C
  C134     1.0000 0.58530  0.67630  0.61260  Biso   1.000  C
  C135     1.0000 0.91470  0.17630  0.11260  Biso   1.000  C
  C136     1.0000 0.08530  0.82370  0.61260  Biso   1.000  C
  H145     1.0000 0.41430  0.30820  0.05530  Biso   1.000  H
  H146     1.0000 0.58570  0.69180  0.55530  Biso   1.000  H
  H147     1.0000 0.91430  0.19180  0.05530  Biso   1.000  H
  H148     1.0000 0.08570  0.80820  0.55530  Biso   1.000  H
  C137     1.0000 0.35230  0.33450  0.15300  Biso   1.000  C
  C138     1.0000 0.64770  0.66550  0.65300  Biso   1.000  C
  C139     1.0000 0.85230  0.16550  0.15300  Biso   1.000  C
  C140     1.0000 0.14770  0.83450  0.65300  Biso   1.000  C
  H149     1.0000 0.30980  0.32370  0.12450  Biso   1.000  H
  H150     1.0000 0.69020  0.67630  0.62450  Biso   1.000  H
  H151     1.0000 0.80980  0.17630  0.12450  Biso   1.000  H
  H152     1.0000 0.19020  0.82370  0.62450  Biso   1.000  H
  C141     1.0000 0.34920  0.36150  0.23630  Biso   1.000  C
  C142     1.0000 0.65080  0.63850  0.73630  Biso   1.000  C
  C143     1.0000 0.84920  0.13850  0.23630  Biso   1.000  C
  C144     1.0000 0.15080  0.86150  0.73630  Biso   1.000  C
  C145     1.0000 0.41430  0.37470  0.27410  Biso   1.000  C
  C146     1.0000 0.58570  0.62530  0.77410  Biso   1.000  C
  C147     1.0000 0.91430  0.12530  0.27410  Biso   1.000  C
  C148     1.0000 0.08570  0.87470  0.77410  Biso   1.000  C
  C149     1.0000 0.28230  0.37370  0.27980  Biso   1.000  C
  C150     1.0000 0.71770  0.62630  0.77980  Biso   1.000  C
  C151     1.0000 0.78230  0.12630  0.27980  Biso   1.000  C
  C152     1.0000 0.21770  0.87370  0.77980  Biso   1.000  C
  H153     1.0000 0.24400  0.36060  0.24070  Biso   1.000  H
  H154     1.0000 0.75600  0.63940  0.74070  Biso   1.000  H
  H155     1.0000 0.74400  0.13940  0.24070  Biso   1.000  H
  H156     1.0000 0.25600  0.86060  0.74070  Biso   1.000  H
  H157     1.0000 0.27800  0.42150  0.28900  Biso   1.000  H
  H158     1.0000 0.72200  0.57850  0.78900  Biso   1.000  H
  H159     1.0000 0.77800  0.07850  0.28900  Biso   1.000  H
  H160     1.0000 0.22200  0.92150  0.78900  Biso   1.000  H
  C153     1.0000 0.41190  0.16890  0.60570  Biso   1.000  C
  C154     1.0000 0.58810  0.83110  0.10570  Biso   1.000  C
  C155     1.0000 0.91190  0.33110  0.60570  Biso   1.000  C
  C156     1.0000 0.08810  0.66890  0.10570  Biso   1.000  C
  H161     1.0000 0.46050  0.15400  0.61610  Biso   1.000  H
  H162     1.0000 0.53950  0.84600  0.11610  Biso   1.000  H
  H163     1.0000 0.96050  0.34600  0.61610  Biso   1.000  H
  H164     1.0000 0.03950  0.65400  0.11610  Biso   1.000  H
  H165     1.0000 0.38050  0.13030  0.60780  Biso   1.000  H
  H166     1.0000 0.61950  0.86970  0.10780  Biso   1.000  H
  H167     1.0000 0.88050  0.36970  0.60780  Biso   1.000  H
  H168     1.0000 0.11950  0.63030  0.10780  Biso   1.000  H
  C157     1.0000 0.39030  0.21860  0.67380  Biso   1.000  C
  C158     1.0000 0.60970  0.78140  0.17380  Biso   1.000  C
  C159     1.0000 0.89030  0.28140  0.67380  Biso   1.000  C
  C160     1.0000 0.10970  0.71860  0.17380  Biso   1.000  C
  H169     1.0000 0.34070  0.23160  0.66570  Biso   1.000  H
  H170     1.0000 0.65930  0.76840  0.16570  Biso   1.000  H
  H171     1.0000 0.84070  0.26840  0.66570  Biso   1.000  H
  H172     1.0000 0.15930  0.73160  0.16570  Biso   1.000  H
  H173     1.0000 0.39550  0.19940  0.73150  Biso   1.000  H
  H174     1.0000 0.60450  0.80060  0.23150  Biso   1.000  H
  H175     1.0000 0.89550  0.30060  0.73150  Biso   1.000  H
  H176     1.0000 0.10450  0.69940  0.23150  Biso   1.000  H
  C161     1.0000 0.43260  0.31780  0.73750  Biso   1.000  C
  C162     1.0000 0.56740  0.68220  0.23750  Biso   1.000  C
  C163     1.0000 0.93260  0.18220  0.73750  Biso   1.000  C
  C164     1.0000 0.06740  0.81780  0.23750  Biso   1.000  C
  H177     1.0000 0.38380  0.33260  0.74740  Biso   1.000  H
  H178     1.0000 0.61620  0.66740  0.24740  Biso   1.000  H
  H179     1.0000 0.88380  0.16740  0.74740  Biso   1.000  H
  H180     1.0000 0.11620  0.83260  0.24740  Biso   1.000  H
  H181     1.0000 0.44850  0.29440  0.78940  Biso   1.000  H
  H182     1.0000 0.55150  0.70560  0.28940  Biso   1.000  H
  H183     1.0000 0.94850  0.20560  0.78940  Biso   1.000  H
  H184     1.0000 0.05150  0.79440  0.28940  Biso   1.000  H
  C165     1.0000 0.47370  0.37030  0.72470  Biso   1.000  C
  C166     1.0000 0.52630  0.62970  0.22470  Biso   1.000  C
  C167     1.0000 0.97370  0.12970  0.72470  Biso   1.000  C
  C168     1.0000 0.02630  0.87030  0.22470  Biso   1.000  C
  H185     1.0000 0.52160  0.35610  0.70860  Biso   1.000  H
  H186     1.0000 0.47840  0.64390  0.20860  Biso   1.000  H
  H187     1.0000 0.02160  0.14390  0.70860  Biso   1.000  H
  H188     1.0000 0.97840  0.85610  0.20860  Biso   1.000  H
  H189     1.0000 0.47690  0.39660  0.77770  Biso   1.000  H
  H190     1.0000 0.52310  0.60340  0.27770  Biso   1.000  H
  H191     1.0000 0.97690  0.10340  0.77770  Biso   1.000  H
  H192     1.0000 0.02310  0.89660  0.27770  Biso   1.000  H
  C169     1.0000 0.47710  0.46960  0.63970  Biso   1.000  C
  C170     1.0000 0.52290  0.53040  0.13970  Biso   1.000  C
  C171     1.0000 0.97710  0.03040  0.63970  Biso   1.000  C
  C172     1.0000 0.02290  0.96960  0.13970  Biso   1.000  C
  H193     1.0000 0.52460  0.46140  0.61650  Biso   1.000  H
  H194     1.0000 0.47540  0.53860  0.11650  Biso   1.000  H
  H195     1.0000 0.02460  0.03860  0.61650  Biso   1.000  H
  H196     1.0000 0.97540  0.96140  0.11650  Biso   1.000  H
  H197     1.0000 0.48210  0.49480  0.69340  Biso   1.000  H
  H198     1.0000 0.51790  0.50520  0.19340  Biso   1.000  H
  H199     1.0000 0.98210  0.00520  0.69340  Biso   1.000  H
  H200     1.0000 0.01790  0.99480  0.19340  Biso   1.000  H
  C173     1.0000 0.43730  0.50700  0.57950  Biso   1.000  C
  C174     1.0000 0.56270  0.49300  0.07950  Biso   1.000  C
  C175     1.0000 0.93730  0.99300  0.57950  Biso   1.000  C
  C176     1.0000 0.06270  0.00700  0.07950  Biso   1.000  C
  H201     1.0000 0.38810  0.51120  0.59900  Biso   1.000  H
  H202     1.0000 0.61190  0.48880  0.09900  Biso   1.000  H
  H203     1.0000 0.88810  0.98880  0.59900  Biso   1.000  H
  H204     1.0000 0.11190  0.01120  0.09900  Biso   1.000  H
  H205     1.0000 0.45750  0.55140  0.57340  Biso   1.000  H
  H206     1.0000 0.54250  0.44860  0.07340  Biso   1.000  H
  H207     1.0000 0.95750  0.94860  0.57340  Biso   1.000  H
  H208     1.0000 0.04250  0.05140  0.07340  Biso   1.000  H
  C177     1.0000 0.40750  0.50000  0.43480  Biso   1.000  C
  C178     1.0000 0.59250  0.50000  0.93480  Biso   1.000  C
  C179     1.0000 0.90750  0.00000  0.43480  Biso   1.000  C
  C180     1.0000 0.09250  0.00000  0.93480  Biso   1.000  C
  H209     1.0000 0.42050  0.54690  0.43260  Biso   1.000  H
  H210     1.0000 0.57950  0.45310  0.93260  Biso   1.000  H
  H211     1.0000 0.92050  0.95310  0.43260  Biso   1.000  H
  H212     1.0000 0.07950  0.04690  0.93260  Biso   1.000  H
  H213     1.0000 0.35640  0.49760  0.44540  Biso   1.000  H
  H214     1.0000 0.64360  0.50240  0.94540  Biso   1.000  H
  H215     1.0000 0.85640  0.00240  0.44540  Biso   1.000  H
  H216     1.0000 0.14360  0.99760  0.94540  Biso   1.000  H
  C181     1.0000 0.42120  0.47240  0.35560  Biso   1.000  C
  C182     1.0000 0.57880  0.52760  0.85560  Biso   1.000  C
  C183     1.0000 0.92120  0.02760  0.35560  Biso   1.000  C
  C184     1.0000 0.07880  0.97240  0.85560  Biso   1.000  C
  H217     1.0000 0.46930  0.48430  0.33770  Biso   1.000  H
  H218     1.0000 0.53070  0.51570  0.83770  Biso   1.000  H
  H219     1.0000 0.96930  0.01570  0.33770  Biso   1.000  H
  H220     1.0000 0.03070  0.98430  0.83770  Biso   1.000  H
  H221     1.0000 0.38820  0.49090  0.31310  Biso   1.000  H
  H222     1.0000 0.61180  0.50910  0.81310  Biso   1.000  H
  H223     1.0000 0.88820  0.00910  0.31310  Biso   1.000  H
  H224     1.0000 0.11180  0.99090  0.81310  Biso   1.000  H
  N1       1.0000 0.44450  0.10380  0.83900  Biso   1.000  N
  N2       1.0000 0.55550  0.89620  0.33900  Biso   1.000  N
  N3       1.0000 0.94450  0.39620  0.83900  Biso   1.000  N
  N4       1.0000 0.05550  0.60380  0.33900  Biso   1.000  N
  C185     1.0000 0.41380  0.06300  0.80700  Biso   1.000  C
  C186     1.0000 0.58620  0.93700  0.30700  Biso   1.000  C
  C187     1.0000 0.91380  0.43700  0.80700  Biso   1.000  C
  C188     1.0000 0.08620  0.56300  0.30700  Biso   1.000  C
  C189     1.0000 0.37490  0.00100  0.78190  Biso   1.000  C
  C190     1.0000 0.62510  0.99900  0.28190  Biso   1.000  C
  C191     1.0000 0.87490  0.49900  0.78190  Biso   1.000  C
  C192     1.0000 0.12510  0.50100  0.28190  Biso   1.000  C
  H225     1.0000 0.40880  0.96610  0.76980  Biso   1.000  H
  H226     1.0000 0.59120  0.03390  0.26980  Biso   1.000  H
  H227     1.0000 0.90880  0.53390  0.76980  Biso   1.000  H
  H228     1.0000 0.09120  0.46610  0.26980  Biso   1.000  H
  H229     1.0000 0.34670  0.00950  0.73070  Biso   1.000  H
  H230     1.0000 0.65330  0.99050  0.23070  Biso   1.000  H
  H231     1.0000 0.84670  0.49050  0.73070  Biso   1.000  H
  H232     1.0000 0.15330  0.50950  0.23070  Biso   1.000  H
  H233     1.0000 0.34410  0.98730  0.82880  Biso   1.000  H
  H234     1.0000 0.65590  0.01270  0.32880  Biso   1.000  H
  H235     1.0000 0.84410  0.51270  0.82880  Biso   1.000  H
  H236     1.0000 0.15590  0.48730  0.32880  Biso   1.000  H
  N5       1.0000 0.86370  0.00580  0.08400  Biso   1.000  N
  N6       1.0000 0.13630  0.99420  0.58400  Biso   1.000  N
  N7       1.0000 0.36370  0.49420  0.08400  Biso   1.000  N
  N8       1.0000 0.63630  0.50580  0.58400  Biso   1.000  N
  C193     1.0000 0.81140  0.00040  0.05000  Biso   1.000  C
  C194     1.0000 0.18860  0.99960  0.55000  Biso   1.000  C
  C195     1.0000 0.31140  0.49960  0.05000  Biso   1.000  C
  C196     1.0000 0.68860  0.50040  0.55000  Biso   1.000  C
  C197     1.0000 0.73550  0.99120  0.02280  Biso   1.000  C
  C198     1.0000 0.26450  0.00880  0.52280  Biso   1.000  C
  C199     1.0000 0.23550  0.50880  0.02280  Biso   1.000  C
  C200     1.0000 0.76450  0.49120  0.52280  Biso   1.000  C
  H237     1.0000 0.71330  0.95810  0.05910  Biso   1.000  H
  H238     1.0000 0.28670  0.04190  0.55910  Biso   1.000  H
  H239     1.0000 0.21330  0.54190  0.05910  Biso   1.000  H
  H240     1.0000 0.78670  0.45810  0.55910  Biso   1.000  H
  H241     1.0000 0.73390  0.97690  0.96300  Biso   1.000  H
  H242     1.0000 0.26610  0.02310  0.46300  Biso   1.000  H
  H243     1.0000 0.23390  0.52310  0.96300  Biso   1.000  H
  H244     1.0000 0.76610  0.47690  0.46300  Biso   1.000  H
  H245     1.0000 0.71030  0.03290  0.02860  Biso   1.000  H
  H246     1.0000 0.28970  0.96710  0.52860  Biso   1.000  H
  H247     1.0000 0.21030  0.46710  0.02860  Biso   1.000  H
  H248     1.0000 0.78970  0.53290  0.52860  Biso   1.000  H
  O37      1.0000 0.21760  0.00090  0.22510  Biso   1.000  O
  O38      1.0000 0.78240  0.99910  0.72510  Biso   1.000  O
  O39      1.0000 0.71760  0.49910  0.22510  Biso   1.000  O
  O40      1.0000 0.28240  0.50090  0.72510  Biso   1.000  O
  O41      1.0000 0.84970  0.03060  0.86290  Biso   1.000  O
  O42      1.0000 0.15030  0.96940  0.36290  Biso   1.000  O
  O43      1.0000 0.34970  0.46940  0.86290  Biso   1.000  O
  O44      1.0000 0.65030  0.53060  0.36290  Biso   1.000  O
