data_image0
_cell_length_a       17.822
_cell_length_b       8.2613
_cell_length_c       20.383
_cell_angle_alpha    90
_cell_angle_beta     90
_cell_angle_gamma    90

_symmetry_space_group_name_H-M    "P 1"
_symmetry_int_tables_number       1

loop_
  _symmetry_equiv_pos_as_xyz
  'x, y, z'

loop_
  _atom_site_label
  _atom_site_occupancy
  _atom_site_fract_x
  _atom_site_fract_y
  _atom_site_fract_z
  _atom_site_thermal_displace_type
  _atom_site_B_iso_or_equiv
  _atom_site_type_symbol
  Cu1      1.0000 0.06961  0.22374  0.00000  Biso   1.000  Cu
  Cu2      1.0000 0.93039  0.77626  0.50000  Biso   1.000  Cu
  Cu3      1.0000 0.43039  0.72374  0.50000  Biso   1.000  Cu
  Cu4      1.0000 0.56961  0.27626  0.00000  Biso   1.000  Cu
  P1       1.0000 0.12736  0.30128  0.09333  Biso   1.000  P
  P2       1.0000 0.87264  0.69872  0.59333  Biso   1.000  P
  P3       1.0000 0.37264  0.80128  0.59333  Biso   1.000  P
  P4       1.0000 0.62736  0.19872  0.09333  Biso   1.000  P
  C1       1.0000 0.08920  0.40340  0.16614  Biso   1.000  C
  C2       1.0000 0.91080  0.59660  0.66614  Biso   1.000  C
  C3       1.0000 0.41080  0.90340  0.66614  Biso   1.000  C
  C4       1.0000 0.58920  0.09660  0.16614  Biso   1.000  C
  C5       1.0000 0.13030  0.41030  0.22460  Biso   1.000  C
  C6       1.0000 0.86970  0.58970  0.72460  Biso   1.000  C
  C7       1.0000 0.36970  0.91030  0.72460  Biso   1.000  C
  C8       1.0000 0.63030  0.08970  0.22460  Biso   1.000  C
  C9       1.0000 0.10480  0.49720  0.27790  Biso   1.000  C
  C10      1.0000 0.89520  0.50280  0.77790  Biso   1.000  C
  C11      1.0000 0.39520  0.99720  0.77790  Biso   1.000  C
  C12      1.0000 0.60480  0.00280  0.27790  Biso   1.000  C
  C13      1.0000 0.03700  0.58100  0.27420  Biso   1.000  C
  C14      1.0000 0.96300  0.41900  0.77420  Biso   1.000  C
  C15      1.0000 0.46300  0.08100  0.77420  Biso   1.000  C
  C16      1.0000 0.53700  0.91900  0.27420  Biso   1.000  C
  C17      1.0000 0.99620  0.57660  0.21670  Biso   1.000  C
  C18      1.0000 0.00380  0.42340  0.71670  Biso   1.000  C
  C19      1.0000 0.50380  0.07660  0.71670  Biso   1.000  C
  C20      1.0000 0.49620  0.92340  0.21670  Biso   1.000  C
  C21      1.0000 0.02150  0.48810  0.16310  Biso   1.000  C
  C22      1.0000 0.97850  0.51190  0.66310  Biso   1.000  C
  C23      1.0000 0.47850  0.98810  0.66310  Biso   1.000  C
  C24      1.0000 0.52150  0.01190  0.16310  Biso   1.000  C
  C25      1.0000 0.17780  0.13240  0.13014  Biso   1.000  C
  C26      1.0000 0.82220  0.86760  0.63014  Biso   1.000  C
  C27      1.0000 0.32220  0.63240  0.63014  Biso   1.000  C
  C28      1.0000 0.67780  0.36760  0.13014  Biso   1.000  C
  C29      1.0000 0.13610  0.00550  0.15680  Biso   1.000  C
  C30      1.0000 0.86390  0.99450  0.65680  Biso   1.000  C
  C31      1.0000 0.36390  0.50550  0.65680  Biso   1.000  C
  C32      1.0000 0.63610  0.49450  0.15680  Biso   1.000  C
  C33      1.0000 0.17150  0.87160  0.18420  Biso   1.000  C
  C34      1.0000 0.82850  0.12840  0.68420  Biso   1.000  C
  C35      1.0000 0.32850  0.37160  0.68420  Biso   1.000  C
  C36      1.0000 0.67150  0.62840  0.18420  Biso   1.000  C
  C37      1.0000 0.24900  0.86260  0.18440  Biso   1.000  C
  C38      1.0000 0.75100  0.13740  0.68440  Biso   1.000  C
  C39      1.0000 0.25100  0.36260  0.68440  Biso   1.000  C
  C40      1.0000 0.74900  0.63740  0.18440  Biso   1.000  C
  C41      1.0000 0.29110  0.98670  0.15750  Biso   1.000  C
  C42      1.0000 0.70890  0.01330  0.65750  Biso   1.000  C
  C43      1.0000 0.20890  0.48670  0.65750  Biso   1.000  C
  C44      1.0000 0.79110  0.51330  0.15750  Biso   1.000  C
  C45      1.0000 0.25590  0.12180  0.13040  Biso   1.000  C
  C46      1.0000 0.74410  0.87820  0.63040  Biso   1.000  C
  C47      1.0000 0.24410  0.62180  0.63040  Biso   1.000  C
  C48      1.0000 0.75590  0.37820  0.13040  Biso   1.000  C
  C49      1.0000 0.19980  0.44750  0.06947  Biso   1.000  C
  C50      1.0000 0.80020  0.55250  0.56947  Biso   1.000  C
  C51      1.0000 0.30020  0.94750  0.56947  Biso   1.000  C
  C52      1.0000 0.69980  0.05250  0.06947  Biso   1.000  C
  C53      1.0000 0.16170  0.59190  0.03648  Biso   1.000  C
  C54      1.0000 0.83830  0.40810  0.53648  Biso   1.000  C
  C55      1.0000 0.33830  0.09190  0.53648  Biso   1.000  C
  C56      1.0000 0.66170  0.90810  0.03648  Biso   1.000  C
  C57      1.0000 0.21580  0.72010  0.01091  Biso   1.000  C
  C58      1.0000 0.78420  0.27990  0.51091  Biso   1.000  C
  C59      1.0000 0.28420  0.22010  0.51091  Biso   1.000  C
  C60      1.0000 0.71580  0.77990  0.01091  Biso   1.000  C
  P5       1.0000 0.15541  0.15315  0.92349  Biso   1.000  P
  P6       1.0000 0.84459  0.84685  0.42349  Biso   1.000  P
  P7       1.0000 0.34459  0.65315  0.42349  Biso   1.000  P
  P8       1.0000 0.65541  0.34685  0.92349  Biso   1.000  P
  C61      1.0000 0.21910  0.99710  0.95423  Biso   1.000  C
  C62      1.0000 0.78090  0.00290  0.45423  Biso   1.000  C
  C63      1.0000 0.28090  0.49710  0.45423  Biso   1.000  C
  C64      1.0000 0.71910  0.50290  0.95423  Biso   1.000  C
  C65      1.0000 0.17170  0.85410  0.97740  Biso   1.000  C
  C66      1.0000 0.82830  0.14590  0.47740  Biso   1.000  C
  C67      1.0000 0.32830  0.35410  0.47740  Biso   1.000  C
  C68      1.0000 0.67170  0.64590  0.97740  Biso   1.000  C
  C69      1.0000 0.12140  0.05770  0.84791  Biso   1.000  C
  C70      1.0000 0.87860  0.94230  0.34791  Biso   1.000  C
  C71      1.0000 0.37860  0.55770  0.34791  Biso   1.000  C
  C72      1.0000 0.62140  0.44230  0.84791  Biso   1.000  C
  C73      1.0000 0.16930  0.02510  0.79560  Biso   1.000  C
  C74      1.0000 0.83070  0.97490  0.29560  Biso   1.000  C
  C75      1.0000 0.33070  0.52510  0.29560  Biso   1.000  C
  C76      1.0000 0.66930  0.47490  0.79560  Biso   1.000  C
  C77      1.0000 0.14350  0.93890  0.74160  Biso   1.000  C
  C78      1.0000 0.85650  0.06110  0.24160  Biso   1.000  C
  C79      1.0000 0.35650  0.43890  0.24160  Biso   1.000  C
  C80      1.0000 0.64350  0.56110  0.74160  Biso   1.000  C
  C81      1.0000 0.06960  0.88580  0.73930  Biso   1.000  C
  C82      1.0000 0.93040  0.11420  0.23930  Biso   1.000  C
  C83      1.0000 0.43040  0.38580  0.23930  Biso   1.000  C
  C84      1.0000 0.56960  0.61420  0.73930  Biso   1.000  C
  C85      1.0000 0.02240  0.91750  0.79110  Biso   1.000  C
  C86      1.0000 0.97760  0.08250  0.29110  Biso   1.000  C
  C87      1.0000 0.47760  0.41750  0.29110  Biso   1.000  C
  C88      1.0000 0.52240  0.58250  0.79110  Biso   1.000  C
  C89      1.0000 0.04780  0.00450  0.84530  Biso   1.000  C
  C90      1.0000 0.95220  0.99550  0.34530  Biso   1.000  C
  C91      1.0000 0.45220  0.50450  0.34530  Biso   1.000  C
  C92      1.0000 0.54780  0.49550  0.84530  Biso   1.000  C
  C93      1.0000 0.21550  0.31470  0.89266  Biso   1.000  C
  C94      1.0000 0.78450  0.68530  0.39266  Biso   1.000  C
  C95      1.0000 0.28450  0.81470  0.39266  Biso   1.000  C
  C96      1.0000 0.71550  0.18530  0.89266  Biso   1.000  C
  C97      1.0000 0.18130  0.44340  0.85980  Biso   1.000  C
  C98      1.0000 0.81870  0.55660  0.35980  Biso   1.000  C
  C99      1.0000 0.31870  0.94340  0.35980  Biso   1.000  C
  C100     1.0000 0.68130  0.05660  0.85980  Biso   1.000  C
  C101     1.0000 0.22370  0.57230  0.83660  Biso   1.000  C
  C102     1.0000 0.77630  0.42770  0.33660  Biso   1.000  C
  C103     1.0000 0.27630  0.07230  0.33660  Biso   1.000  C
  C104     1.0000 0.72370  0.92770  0.83660  Biso   1.000  C
  C105     1.0000 0.30050  0.57490  0.84700  Biso   1.000  C
  C106     1.0000 0.69950  0.42510  0.34700  Biso   1.000  C
  C107     1.0000 0.19950  0.07490  0.34700  Biso   1.000  C
  C108     1.0000 0.80050  0.92510  0.84700  Biso   1.000  C
  C109     1.0000 0.33460  0.45010  0.88020  Biso   1.000  C
  C110     1.0000 0.66540  0.54990  0.38020  Biso   1.000  C
  C111     1.0000 0.16540  0.95010  0.38020  Biso   1.000  C
  C112     1.0000 0.83460  0.04990  0.88020  Biso   1.000  C
  C113     1.0000 0.29270  0.31930  0.90340  Biso   1.000  C
  C114     1.0000 0.70730  0.68070  0.40340  Biso   1.000  C
  C115     1.0000 0.20730  0.81930  0.40340  Biso   1.000  C
  C116     1.0000 0.79270  0.18070  0.90340  Biso   1.000  C
  O1       1.0000 0.00680  0.39610  0.94666  Biso   1.000  O
  O2       1.0000 0.99320  0.60390  0.44666  Biso   1.000  O
  O3       1.0000 0.49320  0.89610  0.44666  Biso   1.000  O
  O4       1.0000 0.50680  0.10390  0.94666  Biso   1.000  O
  O5       1.0000 0.91250  0.44720  0.01572  Biso   1.000  O
  O6       1.0000 0.08750  0.55280  0.51572  Biso   1.000  O
  O7       1.0000 0.58750  0.94720  0.51572  Biso   1.000  O
  O8       1.0000 0.41250  0.05280  0.01572  Biso   1.000  O
  C117     1.0000 0.95710  0.48450  0.96800  Biso   1.000  C
  C118     1.0000 0.04290  0.51550  0.46800  Biso   1.000  C
  C119     1.0000 0.54290  0.98450  0.46800  Biso   1.000  C
  C120     1.0000 0.45710  0.01550  0.96800  Biso   1.000  C
  C121     1.0000 0.94720  0.65230  0.94000  Biso   1.000  C
  C122     1.0000 0.05280  0.34770  0.44000  Biso   1.000  C
  C123     1.0000 0.55280  0.15230  0.44000  Biso   1.000  C
  C124     1.0000 0.44720  0.84770  0.94000  Biso   1.000  C
  O9       1.0000 0.99167  0.03990  0.01309  Biso   1.000  O
  O10      1.0000 0.00833  0.96010  0.51309  Biso   1.000  O
  O11      1.0000 0.50833  0.53990  0.51309  Biso   1.000  O
  O12      1.0000 0.49167  0.46010  0.01309  Biso   1.000  O
  O13      1.0000 0.90350  0.17740  0.06695  Biso   1.000  O
  O14      1.0000 0.09650  0.82260  0.56695  Biso   1.000  O
  O15      1.0000 0.59650  0.67740  0.56695  Biso   1.000  O
  O16      1.0000 0.40350  0.32260  0.06695  Biso   1.000  O
  C125     1.0000 0.93800  0.04750  0.05160  Biso   1.000  C
  C126     1.0000 0.06200  0.95250  0.55160  Biso   1.000  C
  C127     1.0000 0.56200  0.54750  0.55160  Biso   1.000  C
  C128     1.0000 0.43800  0.45250  0.05160  Biso   1.000  C
  C129     1.0000 0.91060  0.89430  0.08350  Biso   1.000  C
  C130     1.0000 0.08940  0.10570  0.58350  Biso   1.000  C
  C131     1.0000 0.58940  0.39430  0.58350  Biso   1.000  C
  C132     1.0000 0.41060  0.60570  0.08350  Biso   1.000  C
  H1       1.0000 0.17758  0.35398  0.22776  Biso   1.000  H
  H2       1.0000 0.82242  0.64602  0.72776  Biso   1.000  H
  H3       1.0000 0.32242  0.85398  0.72776  Biso   1.000  H
  H4       1.0000 0.67758  0.14602  0.22776  Biso   1.000  H
  H5       1.0000 0.13330  0.49990  0.31897  Biso   1.000  H
  H6       1.0000 0.86670  0.50010  0.81897  Biso   1.000  H
  H7       1.0000 0.36670  0.99990  0.81897  Biso   1.000  H
  H8       1.0000 0.63330  0.00010  0.31897  Biso   1.000  H
  H9       1.0000 0.01798  0.63974  0.31254  Biso   1.000  H
  H10      1.0000 0.98202  0.36026  0.81254  Biso   1.000  H
  H11      1.0000 0.48202  0.13974  0.81254  Biso   1.000  H
  H12      1.0000 0.51798  0.86026  0.31254  Biso   1.000  H
  H13      1.0000 0.94898  0.63392  0.21407  Biso   1.000  H
  H14      1.0000 0.05102  0.36608  0.71407  Biso   1.000  H
  H15      1.0000 0.55102  0.13392  0.71407  Biso   1.000  H
  H16      1.0000 0.44898  0.86608  0.21407  Biso   1.000  H
  H17      1.0000 0.99286  0.48616  0.12469  Biso   1.000  H
  H18      1.0000 0.00714  0.51384  0.62469  Biso   1.000  H
  H19      1.0000 0.50714  0.98616  0.62469  Biso   1.000  H
  H20      1.0000 0.49286  0.01384  0.12469  Biso   1.000  H
  H21      1.0000 0.08261  0.00995  0.15667  Biso   1.000  H
  H22      1.0000 0.91739  0.99005  0.65667  Biso   1.000  H
  H23      1.0000 0.41739  0.50995  0.65667  Biso   1.000  H
  H24      1.0000 0.58261  0.49005  0.15667  Biso   1.000  H
  H25      1.0000 0.14219  0.78695  0.20469  Biso   1.000  H
  H26      1.0000 0.85781  0.21305  0.70469  Biso   1.000  H
  H27      1.0000 0.35781  0.28695  0.70469  Biso   1.000  H
  H28      1.0000 0.64219  0.71305  0.20469  Biso   1.000  H
  H29      1.0000 0.27381  0.77056  0.20401  Biso   1.000  H
  H30      1.0000 0.72619  0.22944  0.70401  Biso   1.000  H
  H31      1.0000 0.22619  0.27056  0.70401  Biso   1.000  H
  H32      1.0000 0.77381  0.72944  0.20401  Biso   1.000  H
  H33      1.0000 0.34484  0.97789  0.15855  Biso   1.000  H
  H34      1.0000 0.65516  0.02211  0.65855  Biso   1.000  H
  H35      1.0000 0.15516  0.47789  0.65855  Biso   1.000  H
  H36      1.0000 0.84484  0.52211  0.15855  Biso   1.000  H
  H37      1.0000 0.28548  0.20706  0.11307  Biso   1.000  H
  H38      1.0000 0.71452  0.79294  0.61307  Biso   1.000  H
  H39      1.0000 0.21452  0.70706  0.61307  Biso   1.000  H
  H40      1.0000 0.78548  0.29294  0.11307  Biso   1.000  H
  H41      1.0000 0.22649  0.48313  0.10891  Biso   1.000  H
  H42      1.0000 0.77351  0.51687  0.60891  Biso   1.000  H
  H43      1.0000 0.27351  0.98313  0.60891  Biso   1.000  H
  H44      1.0000 0.72649  0.01687  0.10891  Biso   1.000  H
  H45      1.0000 0.23443  0.39914  0.04119  Biso   1.000  H
  H46      1.0000 0.76557  0.60086  0.54119  Biso   1.000  H
  H47      1.0000 0.26557  0.89914  0.54119  Biso   1.000  H
  H48      1.0000 0.73443  0.10086  0.04119  Biso   1.000  H
  H49      1.0000 0.12942  0.64286  0.06916  Biso   1.000  H
  H50      1.0000 0.87058  0.35714  0.56916  Biso   1.000  H
  H51      1.0000 0.37058  0.14286  0.56916  Biso   1.000  H
  H52      1.0000 0.62942  0.85714  0.06916  Biso   1.000  H
  H53      1.0000 0.13253  0.55390  0.00219  Biso   1.000  H
  H54      1.0000 0.86747  0.44610  0.50219  Biso   1.000  H
  H55      1.0000 0.36747  0.05390  0.50219  Biso   1.000  H
  H56      1.0000 0.63253  0.94610  0.00219  Biso   1.000  H
  H57      1.0000 0.24993  0.67144  0.98177  Biso   1.000  H
  H58      1.0000 0.75007  0.32856  0.48177  Biso   1.000  H
  H59      1.0000 0.25007  0.17144  0.48177  Biso   1.000  H
  H60      1.0000 0.74993  0.82856  0.98177  Biso   1.000  H
  H61      1.0000 0.24404  0.76464  0.04765  Biso   1.000  H
  H62      1.0000 0.75596  0.23536  0.54765  Biso   1.000  H
  H63      1.0000 0.25596  0.26464  0.54765  Biso   1.000  H
  H64      1.0000 0.74404  0.73536  0.04765  Biso   1.000  H
  H65      1.0000 0.22016  0.06163  0.79784  Biso   1.000  H
  H66      1.0000 0.77984  0.93837  0.29784  Biso   1.000  H
  H67      1.0000 0.27984  0.56163  0.29784  Biso   1.000  H
  H68      1.0000 0.72016  0.43837  0.79784  Biso   1.000  H
  H69      1.0000 0.17628  0.91690  0.70707  Biso   1.000  H
  H70      1.0000 0.82372  0.08310  0.20707  Biso   1.000  H
  H71      1.0000 0.32372  0.41690  0.20707  Biso   1.000  H
  H72      1.0000 0.67628  0.58310  0.70707  Biso   1.000  H
  H73      1.0000 0.05181  0.82640  0.70342  Biso   1.000  H
  H74      1.0000 0.94819  0.17360  0.20342  Biso   1.000  H
  H75      1.0000 0.44819  0.32640  0.20342  Biso   1.000  H
  H76      1.0000 0.55181  0.67360  0.70342  Biso   1.000  H
  H77      1.0000 0.97080  0.88530  0.78988  Biso   1.000  H
  H78      1.0000 0.02920  0.11470  0.28988  Biso   1.000  H
  H79      1.0000 0.52920  0.38530  0.28988  Biso   1.000  H
  H80      1.0000 0.47080  0.61470  0.78988  Biso   1.000  H
  H81      1.0000 0.01520  0.02453  0.88232  Biso   1.000  H
  H82      1.0000 0.98480  0.97547  0.38232  Biso   1.000  H
  H83      1.0000 0.48480  0.52453  0.38232  Biso   1.000  H
  H84      1.0000 0.51520  0.47547  0.88232  Biso   1.000  H
  H85      1.0000 0.12834  0.44188  0.85401  Biso   1.000  H
  H86      1.0000 0.87166  0.55812  0.35401  Biso   1.000  H
  H87      1.0000 0.37166  0.94188  0.35401  Biso   1.000  H
  H88      1.0000 0.62834  0.05812  0.85401  Biso   1.000  H
  H89      1.0000 0.20003  0.65808  0.81393  Biso   1.000  H
  H90      1.0000 0.79997  0.34192  0.31393  Biso   1.000  H
  H91      1.0000 0.29997  0.15808  0.31393  Biso   1.000  H
  H92      1.0000 0.70003  0.84192  0.81393  Biso   1.000  H
  H93      1.0000 0.32959  0.66381  0.83240  Biso   1.000  H
  H94      1.0000 0.67041  0.33619  0.33240  Biso   1.000  H
  H95      1.0000 0.17041  0.16381  0.33240  Biso   1.000  H
  H96      1.0000 0.82959  0.83619  0.83240  Biso   1.000  H
  H97      1.0000 0.38756  0.45317  0.88898  Biso   1.000  H
  H98      1.0000 0.61244  0.54683  0.38898  Biso   1.000  H
  H99      1.0000 0.11244  0.95317  0.38898  Biso   1.000  H
  H100     1.0000 0.88756  0.04683  0.88898  Biso   1.000  H
  H101     1.0000 0.31636  0.23275  0.92682  Biso   1.000  H
  H102     1.0000 0.68364  0.76725  0.42682  Biso   1.000  H
  H103     1.0000 0.18364  0.73275  0.42682  Biso   1.000  H
  H104     1.0000 0.81636  0.26725  0.92682  Biso   1.000  H
  H105     1.0000 0.25283  0.96376  0.92161  Biso   1.000  H
  H106     1.0000 0.74717  0.03624  0.42161  Biso   1.000  H
  H107     1.0000 0.24717  0.46376  0.42161  Biso   1.000  H
  H108     1.0000 0.75283  0.53624  0.92161  Biso   1.000  H
  H109     1.0000 0.24781  0.03830  0.99133  Biso   1.000  H
  H110     1.0000 0.75219  0.96170  0.49133  Biso   1.000  H
  H111     1.0000 0.25219  0.53830  0.49133  Biso   1.000  H
  H112     1.0000 0.74781  0.46170  0.99133  Biso   1.000  H
  H113     1.0000 0.13462  0.89299  0.00769  Biso   1.000  H
  H114     1.0000 0.86538  0.10701  0.50769  Biso   1.000  H
  H115     1.0000 0.36538  0.39299  0.50769  Biso   1.000  H
  H116     1.0000 0.63462  0.60701  0.00769  Biso   1.000  H
  H117     1.0000 0.14744  0.80873  0.94061  Biso   1.000  H
  H118     1.0000 0.85256  0.19127  0.44061  Biso   1.000  H
  H119     1.0000 0.35256  0.30873  0.44061  Biso   1.000  H
  H120     1.0000 0.64744  0.69127  0.94061  Biso   1.000  H
  H121     1.0000 0.97297  0.72876  0.96795  Biso   1.000  H
  H122     1.0000 0.02703  0.27124  0.46795  Biso   1.000  H
  H123     1.0000 0.52703  0.22876  0.46795  Biso   1.000  H
  H124     1.0000 0.47297  0.77124  0.96795  Biso   1.000  H
  H125     1.0000 0.89580  0.67910  0.93906  Biso   1.000  H
  H126     1.0000 0.10420  0.32090  0.43906  Biso   1.000  H
  H127     1.0000 0.60420  0.17910  0.43906  Biso   1.000  H
  H128     1.0000 0.39580  0.82090  0.93906  Biso   1.000  H
  H129     1.0000 0.96826  0.65546  0.89799  Biso   1.000  H
  H130     1.0000 0.03174  0.34454  0.39799  Biso   1.000  H
  H131     1.0000 0.53174  0.15546  0.39799  Biso   1.000  H
  H132     1.0000 0.46826  0.84454  0.89799  Biso   1.000  H
  H133     1.0000 0.87463  0.84455  0.05689  Biso   1.000  H
  H134     1.0000 0.12537  0.15545  0.55689  Biso   1.000  H
  H135     1.0000 0.62537  0.34455  0.55689  Biso   1.000  H
  H136     1.0000 0.37463  0.65545  0.05689  Biso   1.000  H
  H137     1.0000 0.88819  0.92064  0.12546  Biso   1.000  H
  H138     1.0000 0.11181  0.07936  0.62546  Biso   1.000  H
  H139     1.0000 0.61181  0.42064  0.62546  Biso   1.000  H
  H140     1.0000 0.38819  0.57936  0.12546  Biso   1.000  H
  H141     1.0000 0.95112  0.82074  0.09191  Biso   1.000  H
  H142     1.0000 0.04888  0.17926  0.59191  Biso   1.000  H
  H143     1.0000 0.54888  0.32074  0.59191  Biso   1.000  H
  H144     1.0000 0.45112  0.67926  0.09191  Biso   1.000  H
  H145     1.0000 0.91200  0.31600  0.03600  Biso   1.000  H
  H146     1.0000 0.08800  0.68400  0.53600  Biso   1.000  H
  H147     1.0000 0.58800  0.81600  0.53600  Biso   1.000  H
  H148     1.0000 0.41200  0.18400  0.03600  Biso   1.000  H
