data_image0
_cell_length_a       16.142
_cell_length_b       16.712
_cell_length_c       9.861
_cell_angle_alpha    90
_cell_angle_beta     90
_cell_angle_gamma    90

_symmetry_space_group_name_H-M    "P 1"
_symmetry_int_tables_number       1

loop_
  _symmetry_equiv_pos_as_xyz
  'x, y, z'

loop_
  _atom_site_label
  _atom_site_occupancy
  _atom_site_fract_x
  _atom_site_fract_y
  _atom_site_fract_z
  _atom_site_thermal_displace_type
  _atom_site_B_iso_or_equiv
  _atom_site_type_symbol
  C1       1.0000 0.92300  0.72170  0.76960  Biso   1.000  C
  C2       1.0000 0.57700  0.27830  0.26960  Biso   1.000  C
  C3       1.0000 0.42300  0.77830  0.23040  Biso   1.000  C
  C4       1.0000 0.07700  0.22170  0.73040  Biso   1.000  C
  C5       1.0000 0.88700  0.68540  0.64430  Biso   1.000  C
  C6       1.0000 0.61300  0.31460  0.14430  Biso   1.000  C
  C7       1.0000 0.38700  0.81460  0.35570  Biso   1.000  C
  C8       1.0000 0.11300  0.18540  0.85570  Biso   1.000  C
  C9       1.0000 0.00160  0.66840  0.12700  Biso   1.000  C
  C10      1.0000 0.49840  0.33160  0.62700  Biso   1.000  C
  C11      1.0000 0.50160  0.83160  0.87300  Biso   1.000  C
  C12      1.0000 0.99840  0.16840  0.37300  Biso   1.000  C
  C13      1.0000 0.02630  0.59930  0.21570  Biso   1.000  C
  C14      1.0000 0.47370  0.40070  0.71570  Biso   1.000  C
  C15      1.0000 0.52630  0.90070  0.78430  Biso   1.000  C
  C16      1.0000 0.97370  0.09930  0.28430  Biso   1.000  C
  C17      1.0000 0.29190  0.64090  0.86540  Biso   1.000  C
  C18      1.0000 0.20810  0.35910  0.36540  Biso   1.000  C
  C19      1.0000 0.79190  0.85910  0.13460  Biso   1.000  C
  C20      1.0000 0.70810  0.14090  0.63460  Biso   1.000  C
  H1       1.0000 0.33500  0.61230  0.82590  Biso   1.000  H
  H2       1.0000 0.16500  0.38770  0.32590  Biso   1.000  H
  H3       1.0000 0.83500  0.88770  0.17410  Biso   1.000  H
  H4       1.0000 0.66500  0.11230  0.67410  Biso   1.000  H
  C21      1.0000 0.28090  0.64020  0.00370  Biso   1.000  C
  C22      1.0000 0.21910  0.35980  0.50370  Biso   1.000  C
  C23      1.0000 0.78090  0.85980  0.99630  Biso   1.000  C
  C24      1.0000 0.71910  0.14020  0.49630  Biso   1.000  C
  H5       1.0000 0.24720  0.68050  0.03840  Biso   1.000  H
  H6       1.0000 0.25280  0.31950  0.53840  Biso   1.000  H
  H7       1.0000 0.74720  0.81950  0.96160  Biso   1.000  H
  H8       1.0000 0.75280  0.18050  0.46160  Biso   1.000  H
  C25      1.0000 0.31520  0.58490  0.10340  Biso   1.000  C
  C26      1.0000 0.18480  0.41510  0.60340  Biso   1.000  C
  C27      1.0000 0.81520  0.91510  0.89660  Biso   1.000  C
  C28      1.0000 0.68480  0.08490  0.39660  Biso   1.000  C
  C29      1.0000 0.30030  0.59970  0.24090  Biso   1.000  C
  C30      1.0000 0.19970  0.40030  0.74090  Biso   1.000  C
  C31      1.0000 0.80030  0.90030  0.75910  Biso   1.000  C
  C32      1.0000 0.69970  0.09970  0.25910  Biso   1.000  C
  H9       1.0000 0.26890  0.64420  0.26480  Biso   1.000  H
  H10      1.0000 0.23110  0.35580  0.76480  Biso   1.000  H
  H11      1.0000 0.76890  0.85580  0.73520  Biso   1.000  H
  H12      1.0000 0.73110  0.14420  0.23520  Biso   1.000  H
  C33      1.0000 0.32990  0.55160  0.34080  Biso   1.000  C
  C34      1.0000 0.17010  0.44840  0.84080  Biso   1.000  C
  C35      1.0000 0.82990  0.94840  0.65920  Biso   1.000  C
  C36      1.0000 0.67010  0.05160  0.15920  Biso   1.000  C
  H13      1.0000 0.31990  0.56400  0.43130  Biso   1.000  H
  H14      1.0000 0.18010  0.43600  0.93130  Biso   1.000  H
  H15      1.0000 0.81990  0.93600  0.56870  Biso   1.000  H
  H16      1.0000 0.68010  0.06400  0.06870  Biso   1.000  H
  C37      1.0000 0.37480  0.48420  0.30770  Biso   1.000  C
  C38      1.0000 0.12520  0.51580  0.80770  Biso   1.000  C
  C39      1.0000 0.87480  0.01580  0.69230  Biso   1.000  C
  C40      1.0000 0.62520  0.98420  0.19230  Biso   1.000  C
  H17      1.0000 0.39440  0.45020  0.37510  Biso   1.000  H
  H18      1.0000 0.10560  0.54980  0.87510  Biso   1.000  H
  H19      1.0000 0.89440  0.04980  0.62490  Biso   1.000  H
  H20      1.0000 0.60560  0.95020  0.12490  Biso   1.000  H
  C41      1.0000 0.39020  0.46800  0.17270  Biso   1.000  C
  C42      1.0000 0.10980  0.53200  0.67270  Biso   1.000  C
  C43      1.0000 0.89020  0.03200  0.82730  Biso   1.000  C
  C44      1.0000 0.60980  0.96800  0.32730  Biso   1.000  C
  H21      1.0000 0.42040  0.42260  0.14960  Biso   1.000  H
  H22      1.0000 0.07960  0.57740  0.64960  Biso   1.000  H
  H23      1.0000 0.92040  0.07740  0.85040  Biso   1.000  H
  H24      1.0000 0.57960  0.92260  0.35040  Biso   1.000  H
  C45      1.0000 0.36120  0.51830  0.07060  Biso   1.000  C
  C46      1.0000 0.13880  0.48170  0.57060  Biso   1.000  C
  C47      1.0000 0.86120  0.98170  0.92940  Biso   1.000  C
  C48      1.0000 0.63880  0.01830  0.42940  Biso   1.000  C
  H25      1.0000 0.37290  0.50700  0.98030  Biso   1.000  H
  H26      1.0000 0.12710  0.49300  0.48030  Biso   1.000  H
  H27      1.0000 0.87290  0.99300  0.01970  Biso   1.000  H
  H28      1.0000 0.62710  0.00700  0.51970  Biso   1.000  H
  C49      1.0000 0.23440  0.68760  0.78110  Biso   1.000  C
  C50      1.0000 0.26560  0.31240  0.28110  Biso   1.000  C
  C51      1.0000 0.73440  0.81240  0.21890  Biso   1.000  C
  C52      1.0000 0.76560  0.18760  0.71890  Biso   1.000  C
  C53      1.0000 0.19130  0.72100  0.56110  Biso   1.000  C
  C54      1.0000 0.30870  0.27900  0.06110  Biso   1.000  C
  C55      1.0000 0.69130  0.77900  0.43890  Biso   1.000  C
  C56      1.0000 0.80870  0.22100  0.93890  Biso   1.000  C
  H29      1.0000 0.13540  0.70860  0.58670  Biso   1.000  H
  H30      1.0000 0.36460  0.29140  0.08670  Biso   1.000  H
  H31      1.0000 0.63540  0.79140  0.41330  Biso   1.000  H
  H32      1.0000 0.86460  0.20860  0.91330  Biso   1.000  H
  H33      1.0000 0.20040  0.70510  0.46870  Biso   1.000  H
  H34      1.0000 0.29960  0.29490  0.96870  Biso   1.000  H
  H35      1.0000 0.70040  0.79490  0.53130  Biso   1.000  H
  H36      1.0000 0.79960  0.20510  0.03130  Biso   1.000  H
  H37      1.0000 0.20040  0.77750  0.56970  Biso   1.000  H
  H38      1.0000 0.29960  0.22250  0.06970  Biso   1.000  H
  H39      1.0000 0.70040  0.72250  0.43030  Biso   1.000  H
  H40      1.0000 0.79960  0.27750  0.93030  Biso   1.000  H
  C57      1.0000 0.10800  0.86760  0.03430  Biso   1.000  C
  C58      1.0000 0.39200  0.13240  0.53430  Biso   1.000  C
  C59      1.0000 0.60800  0.63240  0.96570  Biso   1.000  C
  C60      1.0000 0.89200  0.36760  0.46570  Biso   1.000  C
  H41      1.0000 0.16000  0.84480  0.04640  Biso   1.000  H
  H42      1.0000 0.34000  0.15520  0.54640  Biso   1.000  H
  H43      1.0000 0.66000  0.65520  0.95360  Biso   1.000  H
  H44      1.0000 0.84000  0.34480  0.45360  Biso   1.000  H
  C61      1.0000 0.08710  0.90050  0.91040  Biso   1.000  C
  C62      1.0000 0.41290  0.09950  0.41040  Biso   1.000  C
  C63      1.0000 0.58710  0.59950  0.08960  Biso   1.000  C
  C64      1.0000 0.91290  0.40050  0.58960  Biso   1.000  C
  H45      1.0000 0.03110  0.91090  0.89730  Biso   1.000  H
  H46      1.0000 0.46890  0.08910  0.39730  Biso   1.000  H
  H47      1.0000 0.53110  0.58910  0.10270  Biso   1.000  H
  H48      1.0000 0.96890  0.41090  0.60270  Biso   1.000  H
  C65      1.0000 0.14110  0.92110  0.79780  Biso   1.000  C
  C66      1.0000 0.35890  0.07890  0.29780  Biso   1.000  C
  C67      1.0000 0.64110  0.57890  0.20220  Biso   1.000  C
  C68      1.0000 0.85890  0.42110  0.70220  Biso   1.000  C
  C69      1.0000 0.10940  0.95740  0.68340  Biso   1.000  C
  C70      1.0000 0.39060  0.04260  0.18340  Biso   1.000  C
  C71      1.0000 0.60940  0.54260  0.31660  Biso   1.000  C
  C72      1.0000 0.89060  0.45740  0.81660  Biso   1.000  C
  H49      1.0000 0.05280  0.96770  0.67860  Biso   1.000  H
  H50      1.0000 0.44720  0.03230  0.17860  Biso   1.000  H
  H51      1.0000 0.55280  0.53230  0.32140  Biso   1.000  H
  H52      1.0000 0.94720  0.46770  0.82140  Biso   1.000  H
  C73      1.0000 0.15880  0.97870  0.57700  Biso   1.000  C
  C74      1.0000 0.34120  0.02130  0.07700  Biso   1.000  C
  C75      1.0000 0.65880  0.52130  0.42300  Biso   1.000  C
  C76      1.0000 0.84120  0.47870  0.92300  Biso   1.000  C
  H53      1.0000 0.13620  0.00530  0.50290  Biso   1.000  H
  H54      1.0000 0.36380  0.99470  0.00290  Biso   1.000  H
  H55      1.0000 0.63620  0.49470  0.49710  Biso   1.000  H
  H56      1.0000 0.86380  0.50530  0.99710  Biso   1.000  H
  C77      1.0000 0.24170  0.96090  0.57930  Biso   1.000  C
  C78      1.0000 0.25830  0.03910  0.07930  Biso   1.000  C
  C79      1.0000 0.74170  0.53910  0.42070  Biso   1.000  C
  C80      1.0000 0.75830  0.46090  0.92070  Biso   1.000  C
  H57      1.0000 0.27520  0.97350  0.50560  Biso   1.000  H
  H58      1.0000 0.22480  0.02650  0.00560  Biso   1.000  H
  H59      1.0000 0.77520  0.52650  0.49440  Biso   1.000  H
  H60      1.0000 0.72480  0.47350  0.99440  Biso   1.000  H
  C81      1.0000 0.27490  0.92380  0.69310  Biso   1.000  C
  C82      1.0000 0.22510  0.07620  0.19310  Biso   1.000  C
  C83      1.0000 0.77490  0.57620  0.30690  Biso   1.000  C
  C84      1.0000 0.72510  0.42380  0.80690  Biso   1.000  C
  H61      1.0000 0.33120  0.91220  0.69640  Biso   1.000  H
  H62      1.0000 0.16880  0.08780  0.19640  Biso   1.000  H
  H63      1.0000 0.83120  0.58780  0.30360  Biso   1.000  H
  H64      1.0000 0.66880  0.41220  0.80360  Biso   1.000  H
  C85      1.0000 0.22610  0.90470  0.79820  Biso   1.000  C
  C86      1.0000 0.27390  0.09530  0.29820  Biso   1.000  C
  C87      1.0000 0.72610  0.59530  0.20180  Biso   1.000  C
  C88      1.0000 0.77390  0.40470  0.70180  Biso   1.000  C
  H65      1.0000 0.24940  0.87990  0.87350  Biso   1.000  H
  H66      1.0000 0.25060  0.12010  0.37350  Biso   1.000  H
  H67      1.0000 0.74940  0.62010  0.12650  Biso   1.000  H
  H68      1.0000 0.75060  0.37990  0.62650  Biso   1.000  H
  C89      1.0000 0.04850  0.86840  0.14700  Biso   1.000  C
  C90      1.0000 0.45150  0.13160  0.64700  Biso   1.000  C
  C91      1.0000 0.54850  0.63160  0.85300  Biso   1.000  C
  C92      1.0000 0.95150  0.36840  0.35300  Biso   1.000  C
  C93      1.0000 0.02620  0.83990  0.37820  Biso   1.000  C
  C94      1.0000 0.47380  0.16010  0.87820  Biso   1.000  C
  C95      1.0000 0.52620  0.66010  0.62180  Biso   1.000  C
  C96      1.0000 0.97380  0.33990  0.12180  Biso   1.000  C
  H69      1.0000 0.99970  0.89070  0.39130  Biso   1.000  H
  H70      1.0000 0.50030  0.10930  0.89130  Biso   1.000  H
  H71      1.0000 0.49970  0.60930  0.60870  Biso   1.000  H
  H72      1.0000 0.00030  0.39070  0.10870  Biso   1.000  H
  H73      1.0000 0.05680  0.82590  0.45830  Biso   1.000  H
  H74      1.0000 0.44320  0.17410  0.95830  Biso   1.000  H
  H75      1.0000 0.55680  0.67410  0.54170  Biso   1.000  H
  H76      1.0000 0.94320  0.32590  0.04170  Biso   1.000  H
  H77      1.0000 0.98500  0.79980  0.36080  Biso   1.000  H
  H78      1.0000 0.51500  0.20020  0.86080  Biso   1.000  H
  H79      1.0000 0.48500  0.70020  0.63920  Biso   1.000  H
  H80      1.0000 0.01500  0.29980  0.13920  Biso   1.000  H
  Cu1      1.0000 0.06157  0.77980  0.91633  Biso   1.000  Cu
  Cu2      1.0000 0.43843  0.22020  0.41633  Biso   1.000  Cu
  Cu3      1.0000 0.56157  0.72020  0.08367  Biso   1.000  Cu
  Cu4      1.0000 0.93843  0.27980  0.58367  Biso   1.000  Cu
  Cu5      1.0000 0.37047  0.72286  0.95516  Biso   1.000  Cu
  Cu6      1.0000 0.12953  0.27714  0.45516  Biso   1.000  Cu
  Cu7      1.0000 0.87047  0.77714  0.04484  Biso   1.000  Cu
  Cu8      1.0000 0.62953  0.22286  0.54484  Biso   1.000  Cu
  F1       1.0000 0.92180  0.61460  0.62010  Biso   1.000  F
  F2       1.0000 0.57820  0.38540  0.12010  Biso   1.000  F
  F3       1.0000 0.42180  0.88540  0.37990  Biso   1.000  F
  F4       1.0000 0.07820  0.11460  0.87990  Biso   1.000  F
  F5       1.0000 0.89200  0.72780  0.53000  Biso   1.000  F
  F6       1.0000 0.60800  0.27220  0.03000  Biso   1.000  F
  F7       1.0000 0.39200  0.77220  0.47000  Biso   1.000  F
  F8       1.0000 0.10800  0.22780  0.97000  Biso   1.000  F
  F9       1.0000 0.80710  0.66750  0.66070  Biso   1.000  F
  F10      1.0000 0.69290  0.33250  0.16070  Biso   1.000  F
  F11      1.0000 0.30710  0.83250  0.33930  Biso   1.000  F
  F12      1.0000 0.19290  0.16750  0.83930  Biso   1.000  F
  F13      1.0000 0.93530  0.63600  0.57400  Biso   1.000  F
  F14      1.0000 0.56470  0.36400  0.07400  Biso   1.000  F
  F15      1.0000 0.43530  0.86400  0.42600  Biso   1.000  F
  F16      1.0000 0.06470  0.13600  0.92600  Biso   1.000  F
  F17      1.0000 0.87400  0.74280  0.55300  Biso   1.000  F
  F18      1.0000 0.62600  0.25720  0.05300  Biso   1.000  F
  F19      1.0000 0.37400  0.75720  0.44700  Biso   1.000  F
  F20      1.0000 0.12600  0.24280  0.94700  Biso   1.000  F
  F21      1.0000 0.81460  0.64710  0.64700  Biso   1.000  F
  F22      1.0000 0.68540  0.35290  0.14700  Biso   1.000  F
  F23      1.0000 0.31460  0.85290  0.35300  Biso   1.000  F
  F24      1.0000 0.18540  0.14710  0.85300  Biso   1.000  F
  F25      1.0000 0.08000  0.55220  0.15230  Biso   1.000  F
  F26      1.0000 0.42000  0.44780  0.65230  Biso   1.000  F
  F27      1.0000 0.58000  0.94780  0.84770  Biso   1.000  F
  F28      1.0000 0.92000  0.05220  0.34770  Biso   1.000  F
  F29      1.0000 0.07290  0.62520  0.31830  Biso   1.000  F
  F30      1.0000 0.42710  0.37480  0.81830  Biso   1.000  F
  F31      1.0000 0.57290  0.87480  0.68170  Biso   1.000  F
  F32      1.0000 0.92710  0.12520  0.18170  Biso   1.000  F
  F33      1.0000 0.96870  0.55140  0.26800  Biso   1.000  F
  F34      1.0000 0.53130  0.44860  0.76800  Biso   1.000  F
  F35      1.0000 0.46870  0.94860  0.73200  Biso   1.000  F
  F36      1.0000 0.03130  0.05140  0.23200  Biso   1.000  F
  F37      1.0000 0.00520  0.60560  0.34540  Biso   1.000  F
  F38      1.0000 0.49480  0.39440  0.84540  Biso   1.000  F
  F39      1.0000 0.50520  0.89440  0.65460  Biso   1.000  F
  F40      1.0000 0.99480  0.10560  0.15460  Biso   1.000  F
  F41      1.0000 0.10280  0.57020  0.21420  Biso   1.000  F
  F42      1.0000 0.39720  0.42980  0.71420  Biso   1.000  F
  F43      1.0000 0.60280  0.92980  0.78580  Biso   1.000  F
  F44      1.0000 0.89720  0.07020  0.28580  Biso   1.000  F
  F45      1.0000 0.97950  0.53750  0.17790  Biso   1.000  F
  F46      1.0000 0.52050  0.46250  0.67790  Biso   1.000  F
  F47      1.0000 0.47950  0.96250  0.82210  Biso   1.000  F
  F48      1.0000 0.02050  0.03750  0.32210  Biso   1.000  F
  O1       1.0000 0.87550  0.72220  0.86780  Biso   1.000  O
  O2       1.0000 0.62450  0.27780  0.36780  Biso   1.000  O
  O3       1.0000 0.37550  0.77780  0.13220  Biso   1.000  O
  O4       1.0000 0.12450  0.22220  0.63220  Biso   1.000  O
  O5       1.0000 0.99480  0.74620  0.75920  Biso   1.000  O
  O6       1.0000 0.50520  0.25380  0.25920  Biso   1.000  O
  O7       1.0000 0.49480  0.75380  0.24080  Biso   1.000  O
  O8       1.0000 0.00520  0.24620  0.74080  Biso   1.000  O
  O9       1.0000 0.05290  0.68420  0.03710  Biso   1.000  O
  O10      1.0000 0.44710  0.31580  0.53710  Biso   1.000  O
  O11      1.0000 0.55290  0.81580  0.96290  Biso   1.000  O
  O12      1.0000 0.94710  0.18420  0.46290  Biso   1.000  O
  O13      1.0000 0.93460  0.69980  0.15600  Biso   1.000  O
  O14      1.0000 0.56540  0.30020  0.65600  Biso   1.000  O
  O15      1.0000 0.43460  0.80020  0.84400  Biso   1.000  O
  O16      1.0000 0.06540  0.19980  0.34400  Biso   1.000  O
  O17      1.0000 0.17880  0.72870  0.82440  Biso   1.000  O
  O18      1.0000 0.32120  0.27130  0.32440  Biso   1.000  O
  O19      1.0000 0.67880  0.77130  0.17560  Biso   1.000  O
  O20      1.0000 0.82120  0.22870  0.67560  Biso   1.000  O
  O21      1.0000 0.24860  0.67820  0.64920  Biso   1.000  O
  O22      1.0000 0.25140  0.32180  0.14920  Biso   1.000  O
  O23      1.0000 0.74860  0.82180  0.35080  Biso   1.000  O
  O24      1.0000 0.75140  0.17820  0.85080  Biso   1.000  O
  O25      1.0000 0.97630  0.88640  0.13690  Biso   1.000  O
  O26      1.0000 0.52370  0.11360  0.63690  Biso   1.000  O
  O27      1.0000 0.47630  0.61360  0.86310  Biso   1.000  O
  O28      1.0000 0.02370  0.38640  0.36310  Biso   1.000  O
  O29      1.0000 0.08240  0.84480  0.26350  Biso   1.000  O
  O30      1.0000 0.41760  0.15520  0.76350  Biso   1.000  O
  O31      1.0000 0.58240  0.65520  0.73650  Biso   1.000  O
  O32      1.0000 0.91760  0.34480  0.23650  Biso   1.000  O
