data_image0
_cell_length_a       13.138
_cell_length_b       15.135
_cell_length_c       15.729
_cell_angle_alpha    90
_cell_angle_beta     112.78
_cell_angle_gamma    90

_symmetry_space_group_name_H-M    "P 1"
_symmetry_int_tables_number       1

loop_
  _symmetry_equiv_pos_as_xyz
  'x, y, z'

loop_
  _atom_site_label
  _atom_site_occupancy
  _atom_site_fract_x
  _atom_site_fract_y
  _atom_site_fract_z
  _atom_site_thermal_displace_type
  _atom_site_B_iso_or_equiv
  _atom_site_type_symbol
  C1       1.0000 0.58260  0.32950  0.66310  Biso   1.000  C
  C2       1.0000 0.08260  0.82950  0.66310  Biso   1.000  C
  C3       1.0000 0.41740  0.32950  0.83690  Biso   1.000  C
  C4       1.0000 0.91740  0.82950  0.83690  Biso   1.000  C
  C5       1.0000 0.41740  0.67050  0.33690  Biso   1.000  C
  C6       1.0000 0.91740  0.17050  0.33690  Biso   1.000  C
  C7       1.0000 0.58260  0.67050  0.16310  Biso   1.000  C
  C8       1.0000 0.08260  0.17050  0.16310  Biso   1.000  C
  C9       1.0000 0.63050  0.37840  0.60170  Biso   1.000  C
  C10      1.0000 0.13050  0.87840  0.60170  Biso   1.000  C
  C11      1.0000 0.36950  0.37840  0.89830  Biso   1.000  C
  C12      1.0000 0.86950  0.87840  0.89830  Biso   1.000  C
  C13      1.0000 0.36950  0.62160  0.39830  Biso   1.000  C
  C14      1.0000 0.86950  0.12160  0.39830  Biso   1.000  C
  C15      1.0000 0.63050  0.62160  0.10170  Biso   1.000  C
  C16      1.0000 0.13050  0.12160  0.10170  Biso   1.000  C
  C17      1.0000 0.14360  0.03490  0.84190  Biso   1.000  C
  C18      1.0000 0.64360  0.53490  0.84190  Biso   1.000  C
  C19      1.0000 0.85640  0.03490  0.65810  Biso   1.000  C
  C20      1.0000 0.35640  0.53490  0.65810  Biso   1.000  C
  C21      1.0000 0.85640  0.96510  0.15810  Biso   1.000  C
  C22      1.0000 0.35640  0.46510  0.15810  Biso   1.000  C
  C23      1.0000 0.14360  0.96510  0.34190  Biso   1.000  C
  C24      1.0000 0.64360  0.46510  0.34190  Biso   1.000  C
  H1       1.0000 0.14730  0.02770  0.90360  Biso   1.000  H
  H2       1.0000 0.64730  0.52770  0.90360  Biso   1.000  H
  H3       1.0000 0.85270  0.02770  0.59640  Biso   1.000  H
  H4       1.0000 0.35270  0.52770  0.59640  Biso   1.000  H
  H5       1.0000 0.85270  0.97230  0.09640  Biso   1.000  H
  H6       1.0000 0.35270  0.47230  0.09640  Biso   1.000  H
  H7       1.0000 0.14730  0.97230  0.40360  Biso   1.000  H
  H8       1.0000 0.64730  0.47230  0.40360  Biso   1.000  H
  H9       1.0000 0.17480  0.98400  0.82470  Biso   1.000  H
  H10      1.0000 0.67480  0.48400  0.82470  Biso   1.000  H
  H11      1.0000 0.82520  0.98400  0.67530  Biso   1.000  H
  H12      1.0000 0.32520  0.48400  0.67530  Biso   1.000  H
  H13      1.0000 0.82520  0.01600  0.17530  Biso   1.000  H
  H14      1.0000 0.32520  0.51600  0.17530  Biso   1.000  H
  H15      1.0000 0.17480  0.01600  0.32470  Biso   1.000  H
  H16      1.0000 0.67480  0.51600  0.32470  Biso   1.000  H
  H17      1.0000 0.06800  0.04150  0.80040  Biso   1.000  H
  H18      1.0000 0.56800  0.54150  0.80040  Biso   1.000  H
  H19      1.0000 0.93200  0.04150  0.69960  Biso   1.000  H
  H20      1.0000 0.43200  0.54150  0.69960  Biso   1.000  H
  H21      1.0000 0.93200  0.95850  0.19960  Biso   1.000  H
  H22      1.0000 0.43200  0.45850  0.19960  Biso   1.000  H
  H23      1.0000 0.06800  0.95850  0.30040  Biso   1.000  H
  H24      1.0000 0.56800  0.45850  0.30040  Biso   1.000  H
  C25      1.0000 0.20840  0.11720  0.83710  Biso   1.000  C
  C26      1.0000 0.70840  0.61720  0.83710  Biso   1.000  C
  C27      1.0000 0.79160  0.11720  0.66290  Biso   1.000  C
  C28      1.0000 0.29160  0.61720  0.66290  Biso   1.000  C
  C29      1.0000 0.79160  0.88280  0.16290  Biso   1.000  C
  C30      1.0000 0.29160  0.38280  0.16290  Biso   1.000  C
  C31      1.0000 0.20840  0.88280  0.33710  Biso   1.000  C
  C32      1.0000 0.70840  0.38280  0.33710  Biso   1.000  C
  H25      1.0000 0.28440  0.11290  0.88070  Biso   1.000  H
  H26      1.0000 0.78440  0.61290  0.88070  Biso   1.000  H
  H27      1.0000 0.71560  0.11290  0.61930  Biso   1.000  H
  H28      1.0000 0.21560  0.61290  0.61930  Biso   1.000  H
  H29      1.0000 0.71560  0.88710  0.11930  Biso   1.000  H
  H30      1.0000 0.21560  0.38710  0.11930  Biso   1.000  H
  H31      1.0000 0.28440  0.88710  0.38070  Biso   1.000  H
  H32      1.0000 0.78440  0.38710  0.38070  Biso   1.000  H
  H33      1.0000 0.17550  0.16970  0.85110  Biso   1.000  H
  H34      1.0000 0.67550  0.66970  0.85110  Biso   1.000  H
  H35      1.0000 0.82450  0.16970  0.64890  Biso   1.000  H
  H36      1.0000 0.32450  0.66970  0.64890  Biso   1.000  H
  H37      1.0000 0.82450  0.83030  0.14890  Biso   1.000  H
  H38      1.0000 0.32450  0.33030  0.14890  Biso   1.000  H
  H39      1.0000 0.17550  0.83030  0.35110  Biso   1.000  H
  H40      1.0000 0.67550  0.33030  0.35110  Biso   1.000  H
  C33      1.0000 0.29490  0.10590  0.72730  Biso   1.000  C
  C34      1.0000 0.79490  0.60590  0.72730  Biso   1.000  C
  C35      1.0000 0.70510  0.10590  0.77270  Biso   1.000  C
  C36      1.0000 0.20510  0.60590  0.77270  Biso   1.000  C
  C37      1.0000 0.70510  0.89410  0.27270  Biso   1.000  C
  C38      1.0000 0.20510  0.39410  0.27270  Biso   1.000  C
  C39      1.0000 0.29490  0.89410  0.22730  Biso   1.000  C
  C40      1.0000 0.79490  0.39410  0.22730  Biso   1.000  C
  C41      1.0000 0.28390  0.13810  0.63500  Biso   1.000  C
  C42      1.0000 0.78390  0.63810  0.63500  Biso   1.000  C
  C43      1.0000 0.71610  0.13810  0.86500  Biso   1.000  C
  C44      1.0000 0.21610  0.63810  0.86500  Biso   1.000  C
  C45      1.0000 0.71610  0.86190  0.36500  Biso   1.000  C
  C46      1.0000 0.21610  0.36190  0.36500  Biso   1.000  C
  C47      1.0000 0.28390  0.86190  0.13500  Biso   1.000  C
  C48      1.0000 0.78390  0.36190  0.13500  Biso   1.000  C
  H41      1.0000 0.21920  0.16650  0.59770  Biso   1.000  H
  H42      1.0000 0.71920  0.66650  0.59770  Biso   1.000  H
  H43      1.0000 0.78080  0.16650  0.90230  Biso   1.000  H
  H44      1.0000 0.28080  0.66650  0.90230  Biso   1.000  H
  H45      1.0000 0.78080  0.83350  0.40230  Biso   1.000  H
  H46      1.0000 0.28080  0.33350  0.40230  Biso   1.000  H
  H47      1.0000 0.21920  0.83350  0.09770  Biso   1.000  H
  H48      1.0000 0.71920  0.33350  0.09770  Biso   1.000  H
  C49      1.0000 0.36560  0.12720  0.60410  Biso   1.000  C
  C50      1.0000 0.86560  0.62720  0.60410  Biso   1.000  C
  C51      1.0000 0.63440  0.12720  0.89590  Biso   1.000  C
  C52      1.0000 0.13440  0.62720  0.89590  Biso   1.000  C
  C53      1.0000 0.63440  0.87280  0.39590  Biso   1.000  C
  C54      1.0000 0.13440  0.37280  0.39590  Biso   1.000  C
  C55      1.0000 0.36560  0.87280  0.10410  Biso   1.000  C
  C56      1.0000 0.86560  0.37280  0.10410  Biso   1.000  C
  H49      1.0000 0.43530  0.10990  0.64500  Biso   1.000  H
  H50      1.0000 0.93530  0.60990  0.64500  Biso   1.000  H
  H51      1.0000 0.56470  0.10990  0.85500  Biso   1.000  H
  H52      1.0000 0.06470  0.60990  0.85500  Biso   1.000  H
  H53      1.0000 0.56470  0.89010  0.35500  Biso   1.000  H
  H54      1.0000 0.06470  0.39010  0.35500  Biso   1.000  H
  H55      1.0000 0.43530  0.89010  0.14500  Biso   1.000  H
  H56      1.0000 0.93530  0.39010  0.14500  Biso   1.000  H
  C57      1.0000 0.34590  0.14220  0.50540  Biso   1.000  C
  C58      1.0000 0.84590  0.64220  0.50540  Biso   1.000  C
  C59      1.0000 0.65410  0.14220  0.99460  Biso   1.000  C
  C60      1.0000 0.15410  0.64220  0.99460  Biso   1.000  C
  C61      1.0000 0.65410  0.85780  0.49460  Biso   1.000  C
  C62      1.0000 0.15410  0.35780  0.49460  Biso   1.000  C
  C63      1.0000 0.34590  0.85780  0.00540  Biso   1.000  C
  C64      1.0000 0.84590  0.35780  0.00540  Biso   1.000  C
  C65      1.0000 0.42720  0.14120  0.39570  Biso   1.000  C
  C66      1.0000 0.92720  0.64120  0.39570  Biso   1.000  C
  C67      1.0000 0.57280  0.14120  0.10430  Biso   1.000  C
  C68      1.0000 0.07280  0.64120  0.10430  Biso   1.000  C
  C69      1.0000 0.57280  0.85880  0.60430  Biso   1.000  C
  C70      1.0000 0.07280  0.35880  0.60430  Biso   1.000  C
  C71      1.0000 0.42720  0.85880  0.89570  Biso   1.000  C
  C72      1.0000 0.92720  0.35880  0.89570  Biso   1.000  C
  H57      1.0000 0.37590  0.09930  0.35420  Biso   1.000  H
  H58      1.0000 0.87590  0.59930  0.35420  Biso   1.000  H
  H59      1.0000 0.62410  0.09930  0.14580  Biso   1.000  H
  H60      1.0000 0.12410  0.59930  0.14580  Biso   1.000  H
  H61      1.0000 0.62410  0.90070  0.64580  Biso   1.000  H
  H62      1.0000 0.12410  0.40070  0.64580  Biso   1.000  H
  H63      1.0000 0.37590  0.90070  0.85420  Biso   1.000  H
  H64      1.0000 0.87590  0.40070  0.85420  Biso   1.000  H
  H65      1.0000 0.40120  0.20060  0.37550  Biso   1.000  H
  H66      1.0000 0.90120  0.70060  0.37550  Biso   1.000  H
  H67      1.0000 0.59880  0.20060  0.12450  Biso   1.000  H
  H68      1.0000 0.09880  0.70060  0.12450  Biso   1.000  H
  H69      1.0000 0.59880  0.79940  0.62450  Biso   1.000  H
  H70      1.0000 0.09880  0.29940  0.62450  Biso   1.000  H
  H71      1.0000 0.40120  0.79940  0.87550  Biso   1.000  H
  H72      1.0000 0.90120  0.29940  0.87550  Biso   1.000  H
  C73      1.0000 0.54310  0.12770  0.39690  Biso   1.000  C
  C74      1.0000 0.04310  0.62770  0.39690  Biso   1.000  C
  C75      1.0000 0.45690  0.12770  0.10310  Biso   1.000  C
  C76      1.0000 0.95690  0.62770  0.10310  Biso   1.000  C
  C77      1.0000 0.45690  0.87230  0.60310  Biso   1.000  C
  C78      1.0000 0.95690  0.37230  0.60310  Biso   1.000  C
  C79      1.0000 0.54310  0.87230  0.89690  Biso   1.000  C
  C80      1.0000 0.04310  0.37230  0.89690  Biso   1.000  C
  H73      1.0000 0.54190  0.13770  0.33630  Biso   1.000  H
  H74      1.0000 0.04190  0.63770  0.33630  Biso   1.000  H
  H75      1.0000 0.45810  0.13770  0.16370  Biso   1.000  H
  H76      1.0000 0.95810  0.63770  0.16370  Biso   1.000  H
  H77      1.0000 0.45810  0.86230  0.66370  Biso   1.000  H
  H78      1.0000 0.95810  0.36230  0.66370  Biso   1.000  H
  H79      1.0000 0.54190  0.86230  0.83630  Biso   1.000  H
  H80      1.0000 0.04190  0.36230  0.83630  Biso   1.000  H
  H81      1.0000 0.56690  0.06840  0.41590  Biso   1.000  H
  H82      1.0000 0.06690  0.56840  0.41590  Biso   1.000  H
  H83      1.0000 0.43310  0.06840  0.08410  Biso   1.000  H
  H84      1.0000 0.93310  0.56840  0.08410  Biso   1.000  H
  H85      1.0000 0.43310  0.93160  0.58410  Biso   1.000  H
  H86      1.0000 0.93310  0.43160  0.58410  Biso   1.000  H
  H87      1.0000 0.56690  0.93160  0.91590  Biso   1.000  H
  H88      1.0000 0.06690  0.43160  0.91590  Biso   1.000  H
  H89      1.0000 0.59310  0.16860  0.43940  Biso   1.000  H
  H90      1.0000 0.09310  0.66860  0.43940  Biso   1.000  H
  H91      1.0000 0.40690  0.16860  0.06060  Biso   1.000  H
  H92      1.0000 0.90690  0.66860  0.06060  Biso   1.000  H
  H93      1.0000 0.40690  0.83140  0.56060  Biso   1.000  H
  H94      1.0000 0.90690  0.33140  0.56060  Biso   1.000  H
  H95      1.0000 0.59310  0.83140  0.93940  Biso   1.000  H
  H96      1.0000 0.09310  0.33140  0.93940  Biso   1.000  H
  Cu1      1.0000 0.37518  0.25015  0.65821  Biso   1.000  Cu
  Cu2      1.0000 0.87518  0.75015  0.65821  Biso   1.000  Cu
  Cu3      1.0000 0.62482  0.25015  0.84179  Biso   1.000  Cu
  Cu4      1.0000 0.12482  0.75015  0.84179  Biso   1.000  Cu
  Cu5      1.0000 0.62482  0.74985  0.34179  Biso   1.000  Cu
  Cu6      1.0000 0.12482  0.24985  0.34179  Biso   1.000  Cu
  Cu7      1.0000 0.37518  0.74985  0.15821  Biso   1.000  Cu
  Cu8      1.0000 0.87518  0.24985  0.15821  Biso   1.000  Cu
  F1       1.0000 0.62800  0.46480  0.61300  Biso   1.000  F
  F2       1.0000 0.12800  0.96480  0.61300  Biso   1.000  F
  F3       1.0000 0.37200  0.46480  0.88700  Biso   1.000  F
  F4       1.0000 0.87200  0.96480  0.88700  Biso   1.000  F
  F5       1.0000 0.37200  0.53520  0.38700  Biso   1.000  F
  F6       1.0000 0.87200  0.03520  0.38700  Biso   1.000  F
  F7       1.0000 0.62800  0.53520  0.11300  Biso   1.000  F
  F8       1.0000 0.12800  0.03520  0.11300  Biso   1.000  F
  F9       1.0000 0.56720  0.36800  0.51330  Biso   1.000  F
  F10      1.0000 0.06720  0.86800  0.51330  Biso   1.000  F
  F11      1.0000 0.43280  0.36800  0.98670  Biso   1.000  F
  F12      1.0000 0.93280  0.86800  0.98670  Biso   1.000  F
  F13      1.0000 0.43280  0.63200  0.48670  Biso   1.000  F
  F14      1.0000 0.93280  0.13200  0.48670  Biso   1.000  F
  F15      1.0000 0.56720  0.63200  0.01330  Biso   1.000  F
  F16      1.0000 0.06720  0.13200  0.01330  Biso   1.000  F
  F17      1.0000 0.73100  0.35600  0.61300  Biso   1.000  F
  F18      1.0000 0.23100  0.85600  0.61300  Biso   1.000  F
  F19      1.0000 0.26900  0.35600  0.88700  Biso   1.000  F
  F20      1.0000 0.76900  0.85600  0.88700  Biso   1.000  F
  F21      1.0000 0.26900  0.64400  0.38700  Biso   1.000  F
  F22      1.0000 0.76900  0.14400  0.38700  Biso   1.000  F
  F23      1.0000 0.73100  0.64400  0.11300  Biso   1.000  F
  F24      1.0000 0.23100  0.14400  0.11300  Biso   1.000  F
  F25      1.0000 0.55000  0.41400  0.53020  Biso   1.000  F
  F26      1.0000 0.05000  0.91400  0.53020  Biso   1.000  F
  F27      1.0000 0.45000  0.41400  0.96980  Biso   1.000  F
  F28      1.0000 0.95000  0.91400  0.96980  Biso   1.000  F
  F29      1.0000 0.45000  0.58600  0.46980  Biso   1.000  F
  F30      1.0000 0.95000  0.08600  0.46980  Biso   1.000  F
  F31      1.0000 0.55000  0.58600  0.03020  Biso   1.000  F
  F32      1.0000 0.05000  0.08600  0.03020  Biso   1.000  F
  F33      1.0000 0.65900  0.32150  0.55100  Biso   1.000  F
  F34      1.0000 0.15900  0.82150  0.55100  Biso   1.000  F
  F35      1.0000 0.34100  0.32150  0.94900  Biso   1.000  F
  F36      1.0000 0.84100  0.82150  0.94900  Biso   1.000  F
  F37      1.0000 0.34100  0.67850  0.44900  Biso   1.000  F
  F38      1.0000 0.84100  0.17850  0.44900  Biso   1.000  F
  F39      1.0000 0.65900  0.67850  0.05100  Biso   1.000  F
  F40      1.0000 0.15900  0.17850  0.05100  Biso   1.000  F
  F41      1.0000 0.72960  0.41370  0.63860  Biso   1.000  F
  F42      1.0000 0.22960  0.91370  0.63860  Biso   1.000  F
  F43      1.0000 0.27040  0.41370  0.86140  Biso   1.000  F
  F44      1.0000 0.77040  0.91370  0.86140  Biso   1.000  F
  F45      1.0000 0.27040  0.58630  0.36140  Biso   1.000  F
  F46      1.0000 0.77040  0.08630  0.36140  Biso   1.000  F
  F47      1.0000 0.72960  0.58630  0.13860  Biso   1.000  F
  F48      1.0000 0.22960  0.08630  0.13860  Biso   1.000  F
  F49      1.0000 0.65200  0.32200  0.54700  Biso   1.000  F
  F50      1.0000 0.15200  0.82200  0.54700  Biso   1.000  F
  F51      1.0000 0.34800  0.32200  0.95300  Biso   1.000  F
  F52      1.0000 0.84800  0.82200  0.95300  Biso   1.000  F
  F53      1.0000 0.34800  0.67800  0.45300  Biso   1.000  F
  F54      1.0000 0.84800  0.17800  0.45300  Biso   1.000  F
  F55      1.0000 0.65200  0.67800  0.04700  Biso   1.000  F
  F56      1.0000 0.15200  0.17800  0.04700  Biso   1.000  F
  F57      1.0000 0.72000  0.41400  0.66300  Biso   1.000  F
  F58      1.0000 0.22000  0.91400  0.66300  Biso   1.000  F
  F59      1.0000 0.28000  0.41400  0.83700  Biso   1.000  F
  F60      1.0000 0.78000  0.91400  0.83700  Biso   1.000  F
  F61      1.0000 0.28000  0.58600  0.33700  Biso   1.000  F
  F62      1.0000 0.78000  0.08600  0.33700  Biso   1.000  F
  F63      1.0000 0.72000  0.58600  0.16300  Biso   1.000  F
  F64      1.0000 0.22000  0.08600  0.16300  Biso   1.000  F
  F65      1.0000 0.57900  0.45530  0.57680  Biso   1.000  F
  F66      1.0000 0.07900  0.95530  0.57680  Biso   1.000  F
  F67      1.0000 0.42100  0.45530  0.92320  Biso   1.000  F
  F68      1.0000 0.92100  0.95530  0.92320  Biso   1.000  F
  F69      1.0000 0.42100  0.54470  0.42320  Biso   1.000  F
  F70      1.0000 0.92100  0.04470  0.42320  Biso   1.000  F
  F71      1.0000 0.57900  0.54470  0.07680  Biso   1.000  F
  F72      1.0000 0.07900  0.04470  0.07680  Biso   1.000  F
  O1       1.0000 0.48350  0.31310  0.62510  Biso   1.000  O
  O2       1.0000 0.98350  0.81310  0.62510  Biso   1.000  O
  O3       1.0000 0.51650  0.31310  0.87490  Biso   1.000  O
  O4       1.0000 0.01650  0.81310  0.87490  Biso   1.000  O
  O5       1.0000 0.51650  0.68690  0.37490  Biso   1.000  O
  O6       1.0000 0.01650  0.18690  0.37490  Biso   1.000  O
  O7       1.0000 0.48350  0.68690  0.12510  Biso   1.000  O
  O8       1.0000 0.98350  0.18690  0.12510  Biso   1.000  O
  O9       1.0000 0.64820  0.31350  0.74110  Biso   1.000  O
  O10      1.0000 0.14820  0.81350  0.74110  Biso   1.000  O
  O11      1.0000 0.35180  0.31350  0.75890  Biso   1.000  O
  O12      1.0000 0.85180  0.81350  0.75890  Biso   1.000  O
  O13      1.0000 0.35180  0.68650  0.25890  Biso   1.000  O
  O14      1.0000 0.85180  0.18650  0.25890  Biso   1.000  O
  O15      1.0000 0.64820  0.68650  0.24110  Biso   1.000  O
  O16      1.0000 0.14820  0.18650  0.24110  Biso   1.000  O
  O17      1.0000 0.20350  0.12090  0.74240  Biso   1.000  O
  O18      1.0000 0.70350  0.62090  0.74240  Biso   1.000  O
  O19      1.0000 0.79650  0.12090  0.75760  Biso   1.000  O
  O20      1.0000 0.29650  0.62090  0.75760  Biso   1.000  O
  O21      1.0000 0.79650  0.87910  0.25760  Biso   1.000  O
  O22      1.0000 0.29650  0.37910  0.25760  Biso   1.000  O
  O23      1.0000 0.20350  0.87910  0.24240  Biso   1.000  O
  O24      1.0000 0.70350  0.37910  0.24240  Biso   1.000  O
  O25      1.0000 0.37750  0.07090  0.78080  Biso   1.000  O
  O26      1.0000 0.87750  0.57090  0.78080  Biso   1.000  O
  O27      1.0000 0.62250  0.07090  0.71920  Biso   1.000  O
  O28      1.0000 0.12250  0.57090  0.71920  Biso   1.000  O
  O29      1.0000 0.62250  0.92910  0.21920  Biso   1.000  O
  O30      1.0000 0.12250  0.42910  0.21920  Biso   1.000  O
  O31      1.0000 0.37750  0.92910  0.28080  Biso   1.000  O
  O32      1.0000 0.87750  0.42910  0.28080  Biso   1.000  O
  O33      1.0000 0.43650  0.12700  0.49010  Biso   1.000  O
  O34      1.0000 0.93650  0.62700  0.49010  Biso   1.000  O
  O35      1.0000 0.56350  0.12700  0.00990  Biso   1.000  O
  O36      1.0000 0.06350  0.62700  0.00990  Biso   1.000  O
  O37      1.0000 0.56350  0.87300  0.50990  Biso   1.000  O
  O38      1.0000 0.06350  0.37300  0.50990  Biso   1.000  O
  O39      1.0000 0.43650  0.87300  0.99010  Biso   1.000  O
  O40      1.0000 0.93650  0.37300  0.99010  Biso   1.000  O
  O41      1.0000 0.25950  0.16410  0.44770  Biso   1.000  O
  O42      1.0000 0.75950  0.66410  0.44770  Biso   1.000  O
  O43      1.0000 0.74050  0.16410  0.05230  Biso   1.000  O
  O44      1.0000 0.24050  0.66410  0.05230  Biso   1.000  O
  O45      1.0000 0.74050  0.83590  0.55230  Biso   1.000  O
  O46      1.0000 0.24050  0.33590  0.55230  Biso   1.000  O
  O47      1.0000 0.25950  0.83590  0.94770  Biso   1.000  O
  O48      1.0000 0.75950  0.33590  0.94770  Biso   1.000  O
