data_image0
_cell_length_a       17.348
_cell_length_b       12.881
_cell_length_c       19.836
_cell_angle_alpha    90
_cell_angle_beta     94.06
_cell_angle_gamma    90

_symmetry_space_group_name_H-M    "P 1"
_symmetry_int_tables_number       1

loop_
  _symmetry_equiv_pos_as_xyz
  'x, y, z'

loop_
  _atom_site_label
  _atom_site_occupancy
  _atom_site_fract_x
  _atom_site_fract_y
  _atom_site_fract_z
  _atom_site_thermal_displace_type
  _atom_site_B_iso_or_equiv
  _atom_site_type_symbol
  Cu1      1.0000 0.18612  0.89797  0.43968  Biso   1.000  Cu
  Cu2      1.0000 0.68612  0.39797  0.43968  Biso   1.000  Cu
  Cu3      1.0000 0.81388  0.89797  0.06032  Biso   1.000  Cu
  Cu4      1.0000 0.31388  0.39797  0.06032  Biso   1.000  Cu
  Cu5      1.0000 0.81388  0.10203  0.56032  Biso   1.000  Cu
  Cu6      1.0000 0.31388  0.60203  0.56032  Biso   1.000  Cu
  Cu7      1.0000 0.18612  0.10203  0.93968  Biso   1.000  Cu
  Cu8      1.0000 0.68612  0.60203  0.93968  Biso   1.000  Cu
  Cu9      1.0000 0.05038  0.89306  0.21175  Biso   1.000  Cu
  Cu10     1.0000 0.55038  0.39306  0.21175  Biso   1.000  Cu
  Cu11     1.0000 0.94962  0.89306  0.28825  Biso   1.000  Cu
  Cu12     1.0000 0.44962  0.39306  0.28825  Biso   1.000  Cu
  Cu13     1.0000 0.94962  0.10694  0.78825  Biso   1.000  Cu
  Cu14     1.0000 0.44962  0.60694  0.78825  Biso   1.000  Cu
  Cu15     1.0000 0.05038  0.10694  0.71175  Biso   1.000  Cu
  Cu16     1.0000 0.55038  0.60694  0.71175  Biso   1.000  Cu
  Cu17     1.0000 0.25249  0.77226  0.06324  Biso   1.000  Cu
  Cu18     1.0000 0.75249  0.27226  0.06324  Biso   1.000  Cu
  Cu19     1.0000 0.74751  0.77226  0.43676  Biso   1.000  Cu
  Cu20     1.0000 0.24751  0.27226  0.43676  Biso   1.000  Cu
  Cu21     1.0000 0.74751  0.22774  0.93676  Biso   1.000  Cu
  Cu22     1.0000 0.24751  0.72774  0.93676  Biso   1.000  Cu
  Cu23     1.0000 0.25249  0.22774  0.56324  Biso   1.000  Cu
  Cu24     1.0000 0.75249  0.72774  0.56324  Biso   1.000  Cu
  K1       1.0000 0.00000  0.34720  0.25000  Biso   1.000  K
  K2       1.0000 0.50000  0.84720  0.25000  Biso   1.000  K
  K3       1.0000 0.00000  0.65280  0.75000  Biso   1.000  K
  K4       1.0000 0.50000  0.15280  0.75000  Biso   1.000  K
  C1       1.0000 0.06780  0.87760  0.31700  Biso   1.000  C
  C2       1.0000 0.56780  0.37760  0.31700  Biso   1.000  C
  C3       1.0000 0.93220  0.87760  0.18300  Biso   1.000  C
  C4       1.0000 0.43220  0.37760  0.18300  Biso   1.000  C
  C5       1.0000 0.93220  0.12240  0.68300  Biso   1.000  C
  C6       1.0000 0.43220  0.62240  0.68300  Biso   1.000  C
  C7       1.0000 0.06780  0.12240  0.81700  Biso   1.000  C
  C8       1.0000 0.56780  0.62240  0.81700  Biso   1.000  C
  N1       1.0000 0.11020  0.88050  0.36380  Biso   1.000  N
  N2       1.0000 0.61020  0.38050  0.36380  Biso   1.000  N
  N3       1.0000 0.88980  0.88050  0.13620  Biso   1.000  N
  N4       1.0000 0.38980  0.38050  0.13620  Biso   1.000  N
  N5       1.0000 0.88980  0.11950  0.63620  Biso   1.000  N
  N6       1.0000 0.38980  0.61950  0.63620  Biso   1.000  N
  N7       1.0000 0.11020  0.11950  0.86380  Biso   1.000  N
  N8       1.0000 0.61020  0.61950  0.86380  Biso   1.000  N
  C9       1.0000 0.12710  0.83760  0.15520  Biso   1.000  C
  C10      1.0000 0.62710  0.33760  0.15520  Biso   1.000  C
  C11      1.0000 0.87290  0.83760  0.34480  Biso   1.000  C
  C12      1.0000 0.37290  0.33760  0.34480  Biso   1.000  C
  C13      1.0000 0.87290  0.16240  0.84480  Biso   1.000  C
  C14      1.0000 0.37290  0.66240  0.84480  Biso   1.000  C
  C15      1.0000 0.12710  0.16240  0.65520  Biso   1.000  C
  C16      1.0000 0.62710  0.66240  0.65520  Biso   1.000  C
  C17      1.0000 0.17320  0.81300  0.12060  Biso   1.000  C
  C18      1.0000 0.67320  0.31300  0.12060  Biso   1.000  C
  C19      1.0000 0.82680  0.81300  0.37940  Biso   1.000  C
  C20      1.0000 0.32680  0.31300  0.37940  Biso   1.000  C
  C21      1.0000 0.82680  0.18700  0.87940  Biso   1.000  C
  C22      1.0000 0.32680  0.68700  0.87940  Biso   1.000  C
  C23      1.0000 0.17320  0.18700  0.62060  Biso   1.000  C
  C24      1.0000 0.67320  0.68700  0.62060  Biso   1.000  C
  N9       1.0000 0.21210  0.04350  0.45610  Biso   1.000  N
  N10      1.0000 0.71210  0.54350  0.45610  Biso   1.000  N
  N11      1.0000 0.78790  0.04350  0.04390  Biso   1.000  N
  N12      1.0000 0.28790  0.54350  0.04390  Biso   1.000  N
  N13      1.0000 0.78790  0.95650  0.54390  Biso   1.000  N
  N14      1.0000 0.28790  0.45650  0.54390  Biso   1.000  N
  N15      1.0000 0.21210  0.95650  0.95610  Biso   1.000  N
  N16      1.0000 0.71210  0.45650  0.95610  Biso   1.000  N
  C25      1.0000 0.22780  0.87160  0.96230  Biso   1.000  C
  C26      1.0000 0.72780  0.37160  0.96230  Biso   1.000  C
  C27      1.0000 0.77220  0.87160  0.53770  Biso   1.000  C
  C28      1.0000 0.27220  0.37160  0.53770  Biso   1.000  C
  C29      1.0000 0.77220  0.12840  0.03770  Biso   1.000  C
  C30      1.0000 0.27220  0.62840  0.03770  Biso   1.000  C
  C31      1.0000 0.22780  0.12840  0.46230  Biso   1.000  C
  C32      1.0000 0.72780  0.62840  0.46230  Biso   1.000  C
  C33      1.0000 0.23480  0.78550  0.48620  Biso   1.000  C
  C34      1.0000 0.73480  0.28550  0.48620  Biso   1.000  C
  C35      1.0000 0.76520  0.78550  0.01380  Biso   1.000  C
  C36      1.0000 0.26520  0.28550  0.01380  Biso   1.000  C
  C37      1.0000 0.76520  0.21450  0.51380  Biso   1.000  C
  C38      1.0000 0.26520  0.71450  0.51380  Biso   1.000  C
  C39      1.0000 0.23480  0.21450  0.98620  Biso   1.000  C
  C40      1.0000 0.73480  0.71450  0.98620  Biso   1.000  C
  S1       1.0000 0.37094  0.85300  0.09987  Biso   1.000  S
  S2       1.0000 0.87094  0.35300  0.09987  Biso   1.000  S
  S3       1.0000 0.62906  0.85300  0.40013  Biso   1.000  S
  S4       1.0000 0.12906  0.35300  0.40013  Biso   1.000  S
  S5       1.0000 0.62906  0.14700  0.90013  Biso   1.000  S
  S6       1.0000 0.12906  0.64700  0.90013  Biso   1.000  S
  S7       1.0000 0.37094  0.14700  0.59987  Biso   1.000  S
  S8       1.0000 0.87094  0.64700  0.59987  Biso   1.000  S
  C41      1.0000 0.42980  0.84950  0.02670  Biso   1.000  C
  C42      1.0000 0.92980  0.34950  0.02670  Biso   1.000  C
  C43      1.0000 0.57020  0.84950  0.47330  Biso   1.000  C
  C44      1.0000 0.07020  0.34950  0.47330  Biso   1.000  C
  C45      1.0000 0.57020  0.15050  0.97330  Biso   1.000  C
  C46      1.0000 0.07020  0.65050  0.97330  Biso   1.000  C
  C47      1.0000 0.42980  0.15050  0.52670  Biso   1.000  C
  C48      1.0000 0.92980  0.65050  0.52670  Biso   1.000  C
  H1       1.0000 0.39910  0.87200  0.98670  Biso   1.000  H
  H2       1.0000 0.89910  0.37200  0.98670  Biso   1.000  H
  H3       1.0000 0.60090  0.87200  0.51330  Biso   1.000  H
  H4       1.0000 0.10090  0.37200  0.51330  Biso   1.000  H
  H5       1.0000 0.60090  0.12800  0.01330  Biso   1.000  H
  H6       1.0000 0.10090  0.62800  0.01330  Biso   1.000  H
  H7       1.0000 0.39910  0.12800  0.48670  Biso   1.000  H
  H8       1.0000 0.89910  0.62800  0.48670  Biso   1.000  H
  H9       1.0000 0.47320  0.89670  0.03410  Biso   1.000  H
  H10      1.0000 0.97320  0.39670  0.03410  Biso   1.000  H
  H11      1.0000 0.52680  0.89670  0.46590  Biso   1.000  H
  H12      1.0000 0.02680  0.39670  0.46590  Biso   1.000  H
  H13      1.0000 0.52680  0.10330  0.96590  Biso   1.000  H
  H14      1.0000 0.02680  0.60330  0.96590  Biso   1.000  H
  H15      1.0000 0.47320  0.10330  0.53410  Biso   1.000  H
  H16      1.0000 0.97320  0.60330  0.53410  Biso   1.000  H
  C49      1.0000 0.45900  0.74200  0.01630  Biso   1.000  C
  C50      1.0000 0.95900  0.24200  0.01630  Biso   1.000  C
  C51      1.0000 0.54100  0.74200  0.48370  Biso   1.000  C
  C52      1.0000 0.04100  0.24200  0.48370  Biso   1.000  C
  C53      1.0000 0.54100  0.25800  0.98370  Biso   1.000  C
  C54      1.0000 0.04100  0.75800  0.98370  Biso   1.000  C
  C55      1.0000 0.45900  0.25800  0.51630  Biso   1.000  C
  C56      1.0000 0.95900  0.75800  0.51630  Biso   1.000  C
  H17      1.0000 0.41600  0.69370  0.01350  Biso   1.000  H
  H18      1.0000 0.91600  0.19370  0.01350  Biso   1.000  H
  H19      1.0000 0.58400  0.69370  0.48650  Biso   1.000  H
  H20      1.0000 0.08400  0.19370  0.48650  Biso   1.000  H
  H21      1.0000 0.58400  0.30630  0.98650  Biso   1.000  H
  H22      1.0000 0.08400  0.80630  0.98650  Biso   1.000  H
  H23      1.0000 0.41600  0.30630  0.51350  Biso   1.000  H
  H24      1.0000 0.91600  0.80630  0.51350  Biso   1.000  H
  H25      1.0000 0.48390  0.73880  0.97400  Biso   1.000  H
  H26      1.0000 0.98390  0.23880  0.97400  Biso   1.000  H
  H27      1.0000 0.51610  0.73880  0.52600  Biso   1.000  H
  H28      1.0000 0.01610  0.23880  0.52600  Biso   1.000  H
  H29      1.0000 0.51610  0.26120  0.02600  Biso   1.000  H
  H30      1.0000 0.01610  0.76120  0.02600  Biso   1.000  H
  H31      1.0000 0.48390  0.26120  0.47400  Biso   1.000  H
  H32      1.0000 0.98390  0.76120  0.47400  Biso   1.000  H
  O1       1.0000 0.51230  0.71360  0.07020  Biso   1.000  O
  O2       1.0000 0.01230  0.21360  0.07020  Biso   1.000  O
  O3       1.0000 0.48770  0.71360  0.42980  Biso   1.000  O
  O4       1.0000 0.98770  0.21360  0.42980  Biso   1.000  O
  O5       1.0000 0.48770  0.28640  0.92980  Biso   1.000  O
  O6       1.0000 0.98770  0.78640  0.92980  Biso   1.000  O
  O7       1.0000 0.51230  0.28640  0.57020  Biso   1.000  O
  O8       1.0000 0.01230  0.78640  0.57020  Biso   1.000  O
  C57      1.0000 0.54310  0.61220  0.06160  Biso   1.000  C
  C58      1.0000 0.04310  0.11220  0.06160  Biso   1.000  C
  C59      1.0000 0.45690  0.61220  0.43840  Biso   1.000  C
  C60      1.0000 0.95690  0.11220  0.43840  Biso   1.000  C
  C61      1.0000 0.45690  0.38780  0.93840  Biso   1.000  C
  C62      1.0000 0.95690  0.88780  0.93840  Biso   1.000  C
  C63      1.0000 0.54310  0.38780  0.56160  Biso   1.000  C
  C64      1.0000 0.04310  0.88780  0.56160  Biso   1.000  C
  H33      1.0000 0.56250  0.60600  0.01710  Biso   1.000  H
  H34      1.0000 0.06250  0.10600  0.01710  Biso   1.000  H
  H35      1.0000 0.43750  0.60600  0.48290  Biso   1.000  H
  H36      1.0000 0.93750  0.10600  0.48290  Biso   1.000  H
  H37      1.0000 0.43750  0.39400  0.98290  Biso   1.000  H
  H38      1.0000 0.93750  0.89400  0.98290  Biso   1.000  H
  H39      1.0000 0.56250  0.39400  0.51710  Biso   1.000  H
  H40      1.0000 0.06250  0.89400  0.51710  Biso   1.000  H
  H41      1.0000 0.50310  0.56050  0.06570  Biso   1.000  H
  H42      1.0000 0.00310  0.06050  0.06570  Biso   1.000  H
  H43      1.0000 0.49690  0.56050  0.43430  Biso   1.000  H
  H44      1.0000 0.99690  0.06050  0.43430  Biso   1.000  H
  H45      1.0000 0.49690  0.43950  0.93430  Biso   1.000  H
  H46      1.0000 0.99690  0.93950  0.93430  Biso   1.000  H
  H47      1.0000 0.50310  0.43950  0.56570  Biso   1.000  H
  H48      1.0000 0.00310  0.93950  0.56570  Biso   1.000  H
  C65      1.0000 0.60740  0.59500  0.11500  Biso   1.000  C
  C66      1.0000 0.10740  0.09500  0.11500  Biso   1.000  C
  C67      1.0000 0.39260  0.59500  0.38500  Biso   1.000  C
  C68      1.0000 0.89260  0.09500  0.38500  Biso   1.000  C
  C69      1.0000 0.39260  0.40500  0.88500  Biso   1.000  C
  C70      1.0000 0.89260  0.90500  0.88500  Biso   1.000  C
  C71      1.0000 0.60740  0.40500  0.61500  Biso   1.000  C
  C72      1.0000 0.10740  0.90500  0.61500  Biso   1.000  C
  H49      1.0000 0.64330  0.65280  0.11560  Biso   1.000  H
  H50      1.0000 0.14330  0.15280  0.11560  Biso   1.000  H
  H51      1.0000 0.35670  0.65280  0.38440  Biso   1.000  H
  H52      1.0000 0.85670  0.15280  0.38440  Biso   1.000  H
  H53      1.0000 0.35670  0.34720  0.88440  Biso   1.000  H
  H54      1.0000 0.85670  0.84720  0.88440  Biso   1.000  H
  H55      1.0000 0.64330  0.34720  0.61560  Biso   1.000  H
  H56      1.0000 0.14330  0.84720  0.61560  Biso   1.000  H
  H57      1.0000 0.63540  0.53220  0.10520  Biso   1.000  H
  H58      1.0000 0.13540  0.03220  0.10520  Biso   1.000  H
  H59      1.0000 0.36460  0.53220  0.39480  Biso   1.000  H
  H60      1.0000 0.86460  0.03220  0.39480  Biso   1.000  H
  H61      1.0000 0.36460  0.46780  0.89480  Biso   1.000  H
  H62      1.0000 0.86460  0.96780  0.89480  Biso   1.000  H
  H63      1.0000 0.63540  0.46780  0.60520  Biso   1.000  H
  H64      1.0000 0.13540  0.96780  0.60520  Biso   1.000  H
  S9       1.0000 0.06782  0.08360  0.19491  Biso   1.000  S
  S10      1.0000 0.56782  0.58360  0.19491  Biso   1.000  S
  S11      1.0000 0.93218  0.08360  0.30509  Biso   1.000  S
  S12      1.0000 0.43218  0.58360  0.30509  Biso   1.000  S
  S13      1.0000 0.93218  0.91640  0.80509  Biso   1.000  S
  S14      1.0000 0.43218  0.41640  0.80509  Biso   1.000  S
  S15      1.0000 0.06782  0.91640  0.69491  Biso   1.000  S
  S16      1.0000 0.56782  0.41640  0.69491  Biso   1.000  S
  C73      1.0000 0.14750  0.09820  0.25880  Biso   1.000  C
  C74      1.0000 0.64750  0.59820  0.25880  Biso   1.000  C
  C75      1.0000 0.85250  0.09820  0.24120  Biso   1.000  C
  C76      1.0000 0.35250  0.59820  0.24120  Biso   1.000  C
  C77      1.0000 0.85250  0.90180  0.74120  Biso   1.000  C
  C78      1.0000 0.35250  0.40180  0.74120  Biso   1.000  C
  C79      1.0000 0.14750  0.90180  0.75880  Biso   1.000  C
  C80      1.0000 0.64750  0.40180  0.75880  Biso   1.000  C
  H65      1.0000 0.12680  0.10220  0.30280  Biso   1.000  H
  H66      1.0000 0.62680  0.60220  0.30280  Biso   1.000  H
  H67      1.0000 0.87320  0.10220  0.19720  Biso   1.000  H
  H68      1.0000 0.37320  0.60220  0.19720  Biso   1.000  H
  H69      1.0000 0.87320  0.89780  0.69720  Biso   1.000  H
  H70      1.0000 0.37320  0.39780  0.69720  Biso   1.000  H
  H71      1.0000 0.12680  0.89780  0.80280  Biso   1.000  H
  H72      1.0000 0.62680  0.39780  0.80280  Biso   1.000  H
  H73      1.0000 0.17980  0.03670  0.25840  Biso   1.000  H
  H74      1.0000 0.67980  0.53670  0.25840  Biso   1.000  H
  H75      1.0000 0.82020  0.03670  0.24160  Biso   1.000  H
  H76      1.0000 0.32020  0.53670  0.24160  Biso   1.000  H
  H77      1.0000 0.82020  0.96330  0.74160  Biso   1.000  H
  H78      1.0000 0.32020  0.46330  0.74160  Biso   1.000  H
  H79      1.0000 0.17980  0.96330  0.75840  Biso   1.000  H
  H80      1.0000 0.67980  0.46330  0.75840  Biso   1.000  H
  C81      1.0000 0.19570  0.18970  0.24950  Biso   1.000  C
  C82      1.0000 0.69570  0.68970  0.24950  Biso   1.000  C
  C83      1.0000 0.80430  0.18970  0.25050  Biso   1.000  C
  C84      1.0000 0.30430  0.68970  0.25050  Biso   1.000  C
  C85      1.0000 0.80430  0.81030  0.75050  Biso   1.000  C
  C86      1.0000 0.30430  0.31030  0.75050  Biso   1.000  C
  C87      1.0000 0.19570  0.81030  0.74950  Biso   1.000  C
  C88      1.0000 0.69570  0.31030  0.74950  Biso   1.000  C
  H81      1.0000 0.22750  0.20200  0.29090  Biso   1.000  H
  H82      1.0000 0.72750  0.70200  0.29090  Biso   1.000  H
  H83      1.0000 0.77250  0.20200  0.20910  Biso   1.000  H
  H84      1.0000 0.27250  0.70200  0.20910  Biso   1.000  H
  H85      1.0000 0.77250  0.79800  0.70910  Biso   1.000  H
  H86      1.0000 0.27250  0.29800  0.70910  Biso   1.000  H
  H87      1.0000 0.22750  0.79800  0.79090  Biso   1.000  H
  H88      1.0000 0.72750  0.29800  0.79090  Biso   1.000  H
  H89      1.0000 0.23000  0.17510  0.21410  Biso   1.000  H
  H90      1.0000 0.73000  0.67510  0.21410  Biso   1.000  H
  H91      1.0000 0.77000  0.17510  0.28590  Biso   1.000  H
  H92      1.0000 0.27000  0.67510  0.28590  Biso   1.000  H
  H93      1.0000 0.77000  0.82490  0.78590  Biso   1.000  H
  H94      1.0000 0.27000  0.32490  0.78590  Biso   1.000  H
  H95      1.0000 0.23000  0.82490  0.71410  Biso   1.000  H
  H96      1.0000 0.73000  0.32490  0.71410  Biso   1.000  H
  O9       1.0000 0.15430  0.27970  0.23260  Biso   1.000  O
  O10      1.0000 0.65430  0.77970  0.23260  Biso   1.000  O
  O11      1.0000 0.84570  0.27970  0.26740  Biso   1.000  O
  O12      1.0000 0.34570  0.77970  0.26740  Biso   1.000  O
  O13      1.0000 0.84570  0.72030  0.76740  Biso   1.000  O
  O14      1.0000 0.34570  0.22030  0.76740  Biso   1.000  O
  O15      1.0000 0.15430  0.72030  0.73260  Biso   1.000  O
  O16      1.0000 0.65430  0.22030  0.73260  Biso   1.000  O
  C89      1.0000 0.20780  0.34800  0.20780  Biso   1.000  C
  C90      1.0000 0.70780  0.84800  0.20780  Biso   1.000  C
  C91      1.0000 0.79220  0.34800  0.29220  Biso   1.000  C
  C92      1.0000 0.29220  0.84800  0.29220  Biso   1.000  C
  C93      1.0000 0.79220  0.65200  0.79220  Biso   1.000  C
  C94      1.0000 0.29220  0.15200  0.79220  Biso   1.000  C
  C95      1.0000 0.20780  0.65200  0.70780  Biso   1.000  C
  C96      1.0000 0.70780  0.15200  0.70780  Biso   1.000  C
  H97      1.0000 0.24220  0.31030  0.18000  Biso   1.000  H
  H98      1.0000 0.74220  0.81030  0.18000  Biso   1.000  H
  H99      1.0000 0.75780  0.31030  0.32000  Biso   1.000  H
  H100     1.0000 0.25780  0.81030  0.32000  Biso   1.000  H
  H101     1.0000 0.75780  0.68970  0.82000  Biso   1.000  H
  H102     1.0000 0.25780  0.18970  0.82000  Biso   1.000  H
  H103     1.0000 0.24220  0.68970  0.68000  Biso   1.000  H
  H104     1.0000 0.74220  0.18970  0.68000  Biso   1.000  H
  H105     1.0000 0.23880  0.37910  0.24510  Biso   1.000  H
  H106     1.0000 0.73880  0.87910  0.24510  Biso   1.000  H
  H107     1.0000 0.76120  0.37910  0.25490  Biso   1.000  H
  H108     1.0000 0.26120  0.87910  0.25490  Biso   1.000  H
  H109     1.0000 0.76120  0.62090  0.75490  Biso   1.000  H
  H110     1.0000 0.26120  0.12090  0.75490  Biso   1.000  H
  H111     1.0000 0.23880  0.62090  0.74510  Biso   1.000  H
  H112     1.0000 0.73880  0.12090  0.74510  Biso   1.000  H
  C97      1.0000 0.16690  0.43050  0.16700  Biso   1.000  C
  C98      1.0000 0.66690  0.93050  0.16700  Biso   1.000  C
  C99      1.0000 0.83310  0.43050  0.33300  Biso   1.000  C
  C100     1.0000 0.33310  0.93050  0.33300  Biso   1.000  C
  C101     1.0000 0.83310  0.56950  0.83300  Biso   1.000  C
  C102     1.0000 0.33310  0.06950  0.83300  Biso   1.000  C
  C103     1.0000 0.16690  0.56950  0.66700  Biso   1.000  C
  C104     1.0000 0.66690  0.06950  0.66700  Biso   1.000  C
  H113     1.0000 0.20320  0.47720  0.14760  Biso   1.000  H
  H114     1.0000 0.70320  0.97720  0.14760  Biso   1.000  H
  H115     1.0000 0.79680  0.47720  0.35240  Biso   1.000  H
  H116     1.0000 0.29680  0.97720  0.35240  Biso   1.000  H
  H117     1.0000 0.79680  0.52280  0.85240  Biso   1.000  H
  H118     1.0000 0.29680  0.02280  0.85240  Biso   1.000  H
  H119     1.0000 0.20320  0.52280  0.64760  Biso   1.000  H
  H120     1.0000 0.70320  0.02280  0.64760  Biso   1.000  H
  H121     1.0000 0.13310  0.40090  0.13090  Biso   1.000  H
  H122     1.0000 0.63310  0.90090  0.13090  Biso   1.000  H
  H123     1.0000 0.86690  0.40090  0.36910  Biso   1.000  H
  H124     1.0000 0.36690  0.90090  0.36910  Biso   1.000  H
  H125     1.0000 0.86690  0.59910  0.86910  Biso   1.000  H
  H126     1.0000 0.36690  0.09910  0.86910  Biso   1.000  H
  H127     1.0000 0.13310  0.59910  0.63090  Biso   1.000  H
  H128     1.0000 0.63310  0.09910  0.63090  Biso   1.000  H
  O17      1.0000 0.12370  0.48260  0.21490  Biso   1.000  O
  O18      1.0000 0.62370  0.98260  0.21490  Biso   1.000  O
  O19      1.0000 0.87630  0.48260  0.28510  Biso   1.000  O
  O20      1.0000 0.37630  0.98260  0.28510  Biso   1.000  O
  O21      1.0000 0.87630  0.51740  0.78510  Biso   1.000  O
  O22      1.0000 0.37630  0.01740  0.78510  Biso   1.000  O
  O23      1.0000 0.12370  0.51740  0.71490  Biso   1.000  O
  O24      1.0000 0.62370  0.01740  0.71490  Biso   1.000  O
  C105     1.0000 0.09660  0.58450  0.19970  Biso   1.000  C
  C106     1.0000 0.59660  0.08450  0.19970  Biso   1.000  C
  C107     1.0000 0.90340  0.58450  0.30030  Biso   1.000  C
  C108     1.0000 0.40340  0.08450  0.30030  Biso   1.000  C
  C109     1.0000 0.90340  0.41550  0.80030  Biso   1.000  C
  C110     1.0000 0.40340  0.91550  0.80030  Biso   1.000  C
  C111     1.0000 0.09660  0.41550  0.69970  Biso   1.000  C
  C112     1.0000 0.59660  0.91550  0.69970  Biso   1.000  C
  H129     1.0000 0.13800  0.62460  0.18200  Biso   1.000  H
  H130     1.0000 0.63800  0.12460  0.18200  Biso   1.000  H
  H131     1.0000 0.86200  0.62460  0.31800  Biso   1.000  H
  H132     1.0000 0.36200  0.12460  0.31800  Biso   1.000  H
  H133     1.0000 0.86200  0.37540  0.81800  Biso   1.000  H
  H134     1.0000 0.36200  0.87540  0.81800  Biso   1.000  H
  H135     1.0000 0.13800  0.37540  0.68200  Biso   1.000  H
  H136     1.0000 0.63800  0.87540  0.68200  Biso   1.000  H
  H137     1.0000 0.08280  0.61770  0.24100  Biso   1.000  H
  H138     1.0000 0.58280  0.11770  0.24100  Biso   1.000  H
  H139     1.0000 0.91720  0.61770  0.25900  Biso   1.000  H
  H140     1.0000 0.41720  0.11770  0.25900  Biso   1.000  H
  H141     1.0000 0.91720  0.38230  0.75900  Biso   1.000  H
  H142     1.0000 0.41720  0.88230  0.75900  Biso   1.000  H
  H143     1.0000 0.08280  0.38230  0.74100  Biso   1.000  H
  H144     1.0000 0.58280  0.88230  0.74100  Biso   1.000  H
  C113     1.0000 0.02720  0.58600  0.14880  Biso   1.000  C
  C114     1.0000 0.52720  0.08600  0.14880  Biso   1.000  C
  C115     1.0000 0.97280  0.58600  0.35120  Biso   1.000  C
  C116     1.0000 0.47280  0.08600  0.35120  Biso   1.000  C
  C117     1.0000 0.97280  0.41400  0.85120  Biso   1.000  C
  C118     1.0000 0.47280  0.91400  0.85120  Biso   1.000  C
  C119     1.0000 0.02720  0.41400  0.64880  Biso   1.000  C
  C120     1.0000 0.52720  0.91400  0.64880  Biso   1.000  C
  H145     1.0000 0.01780  0.65760  0.13500  Biso   1.000  H
  H146     1.0000 0.51780  0.15760  0.13500  Biso   1.000  H
  H147     1.0000 0.98220  0.65760  0.36500  Biso   1.000  H
  H148     1.0000 0.48220  0.15760  0.36500  Biso   1.000  H
  H149     1.0000 0.98220  0.34240  0.86500  Biso   1.000  H
  H150     1.0000 0.48220  0.84240  0.86500  Biso   1.000  H
  H151     1.0000 0.01780  0.34240  0.63500  Biso   1.000  H
  H152     1.0000 0.51780  0.84240  0.63500  Biso   1.000  H
  H153     1.0000 0.04050  0.54810  0.10910  Biso   1.000  H
  H154     1.0000 0.54050  0.04810  0.10910  Biso   1.000  H
  H155     1.0000 0.95950  0.54810  0.39090  Biso   1.000  H
  H156     1.0000 0.45950  0.04810  0.39090  Biso   1.000  H
  H157     1.0000 0.95950  0.45190  0.89090  Biso   1.000  H
  H158     1.0000 0.45950  0.95190  0.89090  Biso   1.000  H
  H159     1.0000 0.04050  0.45190  0.60910  Biso   1.000  H
  H160     1.0000 0.54050  0.95190  0.60910  Biso   1.000  H
  O25      1.0000 0.95650  0.54450  0.17020  Biso   1.000  O
  O26      1.0000 0.45650  0.04450  0.17020  Biso   1.000  O
  O27      1.0000 0.04350  0.54450  0.32980  Biso   1.000  O
  O28      1.0000 0.54350  0.04450  0.32980  Biso   1.000  O
  O29      1.0000 0.04350  0.45550  0.82980  Biso   1.000  O
  O30      1.0000 0.54350  0.95550  0.82980  Biso   1.000  O
  O31      1.0000 0.95650  0.45550  0.67020  Biso   1.000  O
  O32      1.0000 0.45650  0.95550  0.67020  Biso   1.000  O
  C121     1.0000 0.89730  0.57330  0.12200  Biso   1.000  C
  C122     1.0000 0.39730  0.07330  0.12200  Biso   1.000  C
  C123     1.0000 0.10270  0.57330  0.37800  Biso   1.000  C
  C124     1.0000 0.60270  0.07330  0.37800  Biso   1.000  C
  C125     1.0000 0.10270  0.42670  0.87800  Biso   1.000  C
  C126     1.0000 0.60270  0.92670  0.87800  Biso   1.000  C
  C127     1.0000 0.89730  0.42670  0.62200  Biso   1.000  C
  C128     1.0000 0.39730  0.92670  0.62200  Biso   1.000  C
  H161     1.0000 0.92030  0.59670  0.08160  Biso   1.000  H
  H162     1.0000 0.42030  0.09670  0.08160  Biso   1.000  H
  H163     1.0000 0.07970  0.59670  0.41840  Biso   1.000  H
  H164     1.0000 0.57970  0.09670  0.41840  Biso   1.000  H
  H165     1.0000 0.07970  0.40330  0.91840  Biso   1.000  H
  H166     1.0000 0.57970  0.90330  0.91840  Biso   1.000  H
  H167     1.0000 0.92030  0.40330  0.58160  Biso   1.000  H
  H168     1.0000 0.42030  0.90330  0.58160  Biso   1.000  H
  H169     1.0000 0.86930  0.63140  0.13960  Biso   1.000  H
  H170     1.0000 0.36930  0.13140  0.13960  Biso   1.000  H
  H171     1.0000 0.13070  0.63140  0.36040  Biso   1.000  H
  H172     1.0000 0.63070  0.13140  0.36040  Biso   1.000  H
  H173     1.0000 0.13070  0.36860  0.86040  Biso   1.000  H
  H174     1.0000 0.63070  0.86860  0.86040  Biso   1.000  H
  H175     1.0000 0.86930  0.36860  0.63960  Biso   1.000  H
  H176     1.0000 0.36930  0.86860  0.63960  Biso   1.000  H
  O33      1.0000 0.59840  0.97090  0.18590  Biso   1.000  O
  O34      1.0000 0.09840  0.47090  0.18590  Biso   1.000  O
  O35      1.0000 0.40160  0.97090  0.31410  Biso   1.000  O
  O36      1.0000 0.90160  0.47090  0.31410  Biso   1.000  O
  O37      1.0000 0.40160  0.02910  0.81410  Biso   1.000  O
  O38      1.0000 0.90160  0.52910  0.81410  Biso   1.000  O
  O39      1.0000 0.59840  0.02910  0.68590  Biso   1.000  O
  O40      1.0000 0.09840  0.52910  0.68590  Biso   1.000  O
  C129     1.0000 0.59980  0.06040  0.14510  Biso   1.000  C
  C130     1.0000 0.09980  0.56040  0.14510  Biso   1.000  C
  C131     1.0000 0.40020  0.06040  0.35490  Biso   1.000  C
  C132     1.0000 0.90020  0.56040  0.35490  Biso   1.000  C
  C133     1.0000 0.40020  0.93960  0.85490  Biso   1.000  C
  C134     1.0000 0.90020  0.43960  0.85490  Biso   1.000  C
  C135     1.0000 0.59980  0.93960  0.64510  Biso   1.000  C
  C136     1.0000 0.09980  0.43960  0.64510  Biso   1.000  C
  H177     1.0000 0.60520  0.04160  0.09840  Biso   1.000  H
  H178     1.0000 0.10520  0.54160  0.09840  Biso   1.000  H
  H179     1.0000 0.39480  0.04160  0.40160  Biso   1.000  H
  H180     1.0000 0.89480  0.54160  0.40160  Biso   1.000  H
  H181     1.0000 0.39480  0.95840  0.90160  Biso   1.000  H
  H182     1.0000 0.89480  0.45840  0.90160  Biso   1.000  H
  H183     1.0000 0.60520  0.95840  0.59840  Biso   1.000  H
  H184     1.0000 0.10520  0.45840  0.59840  Biso   1.000  H
  H185     1.0000 0.64250  0.10520  0.16030  Biso   1.000  H
  H186     1.0000 0.14250  0.60520  0.16030  Biso   1.000  H
  H187     1.0000 0.35750  0.10520  0.33970  Biso   1.000  H
  H188     1.0000 0.85750  0.60520  0.33970  Biso   1.000  H
  H189     1.0000 0.35750  0.89480  0.83970  Biso   1.000  H
  H190     1.0000 0.85750  0.39480  0.83970  Biso   1.000  H
  H191     1.0000 0.64250  0.89480  0.66030  Biso   1.000  H
  H192     1.0000 0.14250  0.39480  0.66030  Biso   1.000  H
  C137     1.0000 0.52390  0.11400  0.15200  Biso   1.000  C
  C138     1.0000 0.02390  0.61400  0.15200  Biso   1.000  C
  C139     1.0000 0.47610  0.11400  0.34800  Biso   1.000  C
  C140     1.0000 0.97610  0.61400  0.34800  Biso   1.000  C
  C141     1.0000 0.47610  0.88600  0.84800  Biso   1.000  C
  C142     1.0000 0.97610  0.38600  0.84800  Biso   1.000  C
  C143     1.0000 0.52390  0.88600  0.65200  Biso   1.000  C
  C144     1.0000 0.02390  0.38600  0.65200  Biso   1.000  C
  H193     1.0000 0.52280  0.14750  0.19610  Biso   1.000  H
  H194     1.0000 0.02280  0.64750  0.19610  Biso   1.000  H
  H195     1.0000 0.47720  0.14750  0.30390  Biso   1.000  H
  H196     1.0000 0.97720  0.64750  0.30390  Biso   1.000  H
  H197     1.0000 0.47720  0.85250  0.80390  Biso   1.000  H
  H198     1.0000 0.97720  0.35250  0.80390  Biso   1.000  H
  H199     1.0000 0.52280  0.85250  0.69610  Biso   1.000  H
  H200     1.0000 0.02280  0.35250  0.69610  Biso   1.000  H
  H201     1.0000 0.51360  0.16540  0.11710  Biso   1.000  H
  H202     1.0000 0.01360  0.66540  0.11710  Biso   1.000  H
  H203     1.0000 0.48640  0.16540  0.38290  Biso   1.000  H
  H204     1.0000 0.98640  0.66540  0.38290  Biso   1.000  H
  H205     1.0000 0.48640  0.83460  0.88290  Biso   1.000  H
  H206     1.0000 0.98640  0.33460  0.88290  Biso   1.000  H
  H207     1.0000 0.51360  0.83460  0.61710  Biso   1.000  H
  H208     1.0000 0.01360  0.33460  0.61710  Biso   1.000  H
  O41      1.0000 0.47060  0.03090  0.14590  Biso   1.000  O
  O42      1.0000 0.97060  0.53090  0.14590  Biso   1.000  O
  O43      1.0000 0.52940  0.03090  0.35410  Biso   1.000  O
  O44      1.0000 0.02940  0.53090  0.35410  Biso   1.000  O
  O45      1.0000 0.52940  0.96910  0.85410  Biso   1.000  O
  O46      1.0000 0.02940  0.46910  0.85410  Biso   1.000  O
  O47      1.0000 0.47060  0.96910  0.64590  Biso   1.000  O
  O48      1.0000 0.97060  0.46910  0.64590  Biso   1.000  O
  C145     1.0000 0.41120  0.05650  0.09690  Biso   1.000  C
  C146     1.0000 0.91120  0.55650  0.09690  Biso   1.000  C
  C147     1.0000 0.58880  0.05650  0.40310  Biso   1.000  C
  C148     1.0000 0.08880  0.55650  0.40310  Biso   1.000  C
  C149     1.0000 0.58880  0.94350  0.90310  Biso   1.000  C
  C150     1.0000 0.08880  0.44350  0.90310  Biso   1.000  C
  C151     1.0000 0.41120  0.94350  0.59690  Biso   1.000  C
  C152     1.0000 0.91120  0.44350  0.59690  Biso   1.000  C
  H209     1.0000 0.42960  0.04800  0.05220  Biso   1.000  H
  H210     1.0000 0.92960  0.54800  0.05220  Biso   1.000  H
  H211     1.0000 0.57040  0.04800  0.44780  Biso   1.000  H
  H212     1.0000 0.07040  0.54800  0.44780  Biso   1.000  H
  H213     1.0000 0.57040  0.95200  0.94780  Biso   1.000  H
  H214     1.0000 0.07040  0.45200  0.94780  Biso   1.000  H
  H215     1.0000 0.42960  0.95200  0.55220  Biso   1.000  H
  H216     1.0000 0.92960  0.45200  0.55220  Biso   1.000  H
  H217     1.0000 0.39680  0.12870  0.10210  Biso   1.000  H
  H218     1.0000 0.89680  0.62870  0.10210  Biso   1.000  H
  H219     1.0000 0.60320  0.12870  0.39790  Biso   1.000  H
  H220     1.0000 0.10320  0.62870  0.39790  Biso   1.000  H
  H221     1.0000 0.60320  0.87130  0.89790  Biso   1.000  H
  H222     1.0000 0.10320  0.37130  0.89790  Biso   1.000  H
  H223     1.0000 0.39680  0.87130  0.60210  Biso   1.000  H
  H224     1.0000 0.89680  0.37130  0.60210  Biso   1.000  H
  C153     1.0000 0.34170  0.98870  0.10350  Biso   1.000  C
  C154     1.0000 0.84170  0.48870  0.10350  Biso   1.000  C
  C155     1.0000 0.65830  0.98870  0.39650  Biso   1.000  C
  C156     1.0000 0.15830  0.48870  0.39650  Biso   1.000  C
  C157     1.0000 0.65830  0.01130  0.89650  Biso   1.000  C
  C158     1.0000 0.15830  0.51130  0.89650  Biso   1.000  C
  C159     1.0000 0.34170  0.01130  0.60350  Biso   1.000  C
  C160     1.0000 0.84170  0.51130  0.60350  Biso   1.000  C
  H225     1.0000 0.31740  0.00590  0.05940  Biso   1.000  H
  H226     1.0000 0.81740  0.50590  0.05940  Biso   1.000  H
  H227     1.0000 0.68260  0.00590  0.44060  Biso   1.000  H
  H228     1.0000 0.18260  0.50590  0.44060  Biso   1.000  H
  H229     1.0000 0.68260  0.99410  0.94060  Biso   1.000  H
  H230     1.0000 0.18260  0.49410  0.94060  Biso   1.000  H
  H231     1.0000 0.31740  0.99410  0.55940  Biso   1.000  H
  H232     1.0000 0.81740  0.49410  0.55940  Biso   1.000  H
  H233     1.0000 0.30150  0.99240  0.13510  Biso   1.000  H
  H234     1.0000 0.80150  0.49240  0.13510  Biso   1.000  H
  H235     1.0000 0.69850  0.99240  0.36490  Biso   1.000  H
  H236     1.0000 0.19850  0.49240  0.36490  Biso   1.000  H
  H237     1.0000 0.69850  0.00760  0.86490  Biso   1.000  H
  H238     1.0000 0.19850  0.50760  0.86490  Biso   1.000  H
  H239     1.0000 0.30150  0.00760  0.63510  Biso   1.000  H
  H240     1.0000 0.80150  0.50760  0.63510  Biso   1.000  H
