data_image0
_cell_length_a       9.4575
_cell_length_b       21.398
_cell_length_c       7.1568
_cell_angle_alpha    90
_cell_angle_beta     110.639
_cell_angle_gamma    90

_symmetry_space_group_name_H-M    "P 1"
_symmetry_int_tables_number       1

loop_
  _symmetry_equiv_pos_as_xyz
  'x, y, z'

loop_
  _atom_site_label
  _atom_site_occupancy
  _atom_site_fract_x
  _atom_site_fract_y
  _atom_site_fract_z
  _atom_site_thermal_displace_type
  _atom_site_B_iso_or_equiv
  _atom_site_type_symbol
  Cu1      1.0000 0.88949  0.83021  0.76404  Biso   1.000  Cu
  Cu2      1.0000 0.11051  0.33021  0.73596  Biso   1.000  Cu
  Cu3      1.0000 0.11051  0.16979  0.23596  Biso   1.000  Cu
  Cu4      1.0000 0.88949  0.66979  0.26404  Biso   1.000  Cu
  O1       1.0000 0.46650  0.90040  0.39680  Biso   1.000  O
  O2       1.0000 0.53350  0.40040  0.10320  Biso   1.000  O
  O3       1.0000 0.53350  0.09960  0.60320  Biso   1.000  O
  O4       1.0000 0.46650  0.59960  0.89680  Biso   1.000  O
  O5       1.0000 0.40390  0.84270  0.12320  Biso   1.000  O
  O6       1.0000 0.59610  0.34270  0.37680  Biso   1.000  O
  O7       1.0000 0.59610  0.15730  0.87680  Biso   1.000  O
  O8       1.0000 0.40390  0.65730  0.62320  Biso   1.000  O
  O9       1.0000 0.64460  0.82860  0.68750  Biso   1.000  O
  O10      1.0000 0.35540  0.32860  0.81250  Biso   1.000  O
  O11      1.0000 0.35540  0.17140  0.31250  Biso   1.000  O
  O12      1.0000 0.64460  0.67140  0.18750  Biso   1.000  O
  O13      1.0000 0.42430  0.77490  0.79330  Biso   1.000  O
  O14      1.0000 0.57570  0.27490  0.70670  Biso   1.000  O
  O15      1.0000 0.57570  0.22510  0.20670  Biso   1.000  O
  O16      1.0000 0.42430  0.72510  0.29330  Biso   1.000  O
  N1       1.0000 0.93190  0.74260  0.78680  Biso   1.000  N
  N2       1.0000 0.06810  0.24260  0.71320  Biso   1.000  N
  N3       1.0000 0.06810  0.25740  0.21320  Biso   1.000  N
  N4       1.0000 0.93190  0.75740  0.28680  Biso   1.000  N
  N5       1.0000 0.06980  0.41720  0.75470  Biso   1.000  N
  N6       1.0000 0.93020  0.91720  0.74530  Biso   1.000  N
  N7       1.0000 0.93020  0.58280  0.24530  Biso   1.000  N
  N8       1.0000 0.06980  0.08280  0.25470  Biso   1.000  N
  C1       1.0000 0.07140  0.71910  0.86280  Biso   1.000  C
  C2       1.0000 0.92860  0.21910  0.63720  Biso   1.000  C
  C3       1.0000 0.92860  0.28090  0.13720  Biso   1.000  C
  C4       1.0000 0.07140  0.78090  0.36280  Biso   1.000  C
  C5       1.0000 0.10330  0.65630  0.86180  Biso   1.000  C
  C6       1.0000 0.89670  0.15630  0.63820  Biso   1.000  C
  C7       1.0000 0.89670  0.34370  0.13820  Biso   1.000  C
  C8       1.0000 0.10330  0.84370  0.36180  Biso   1.000  C
  C9       1.0000 0.98690  0.61370  0.78090  Biso   1.000  C
  C10      1.0000 0.01310  0.11370  0.71910  Biso   1.000  C
  C11      1.0000 0.01310  0.38630  0.21910  Biso   1.000  C
  C12      1.0000 0.98690  0.88630  0.28090  Biso   1.000  C
  C13      1.0000 0.84370  0.63840  0.70590  Biso   1.000  C
  C14      1.0000 0.15630  0.13840  0.79410  Biso   1.000  C
  C15      1.0000 0.15630  0.36160  0.29410  Biso   1.000  C
  C16      1.0000 0.84370  0.86160  0.20590  Biso   1.000  C
  C17      1.0000 0.82010  0.70130  0.71160  Biso   1.000  C
  C18      1.0000 0.17990  0.20130  0.78840  Biso   1.000  C
  C19      1.0000 0.17990  0.29870  0.28840  Biso   1.000  C
  C20      1.0000 0.82010  0.79870  0.21160  Biso   1.000  C
  C21      1.0000 0.18200  0.45770  0.84150  Biso   1.000  C
  C22      1.0000 0.81800  0.95770  0.65850  Biso   1.000  C
  C23      1.0000 0.81800  0.54230  0.15850  Biso   1.000  C
  C24      1.0000 0.18200  0.04230  0.34150  Biso   1.000  C
  C25      1.0000 0.15970  0.52090  0.85460  Biso   1.000  C
  C26      1.0000 0.84030  0.02090  0.64540  Biso   1.000  C
  C27      1.0000 0.84030  0.47910  0.14540  Biso   1.000  C
  C28      1.0000 0.15970  0.97910  0.35460  Biso   1.000  C
  C29      1.0000 0.01570  0.54580  0.77440  Biso   1.000  C
  C30      1.0000 0.98430  0.04580  0.72560  Biso   1.000  C
  C31      1.0000 0.98430  0.45420  0.22560  Biso   1.000  C
  C32      1.0000 0.01570  0.95420  0.27440  Biso   1.000  C
  C33      1.0000 0.89890  0.50330  0.68650  Biso   1.000  C
  C34      1.0000 0.10110  0.00330  0.81350  Biso   1.000  C
  C35      1.0000 0.10110  0.49670  0.31350  Biso   1.000  C
  C36      1.0000 0.89890  0.99670  0.18650  Biso   1.000  C
  C37      1.0000 0.93010  0.44090  0.67930  Biso   1.000  C
  C38      1.0000 0.06990  0.94090  0.82070  Biso   1.000  C
  C39      1.0000 0.06990  0.55910  0.32070  Biso   1.000  C
  C40      1.0000 0.93010  0.05910  0.17930  Biso   1.000  C
  C41      1.0000 0.44610  0.89230  0.21670  Biso   1.000  C
  C42      1.0000 0.55390  0.39230  0.28330  Biso   1.000  C
  C43      1.0000 0.55390  0.10770  0.78330  Biso   1.000  C
  C44      1.0000 0.44610  0.60770  0.71670  Biso   1.000  C
  C45      1.0000 0.47350  0.94810  0.10240  Biso   1.000  C
  C46      1.0000 0.52650  0.44810  0.39760  Biso   1.000  C
  C47      1.0000 0.52650  0.05190  0.89760  Biso   1.000  C
  C48      1.0000 0.47350  0.55190  0.60240  Biso   1.000  C
  C49      1.0000 0.50310  0.00650  0.19340  Biso   1.000  C
  C50      1.0000 0.49690  0.50650  0.30660  Biso   1.000  C
  C51      1.0000 0.49690  0.99350  0.80660  Biso   1.000  C
  C52      1.0000 0.50310  0.49350  0.69340  Biso   1.000  C
  C53      1.0000 0.47010  0.94220  0.90730  Biso   1.000  C
  C54      1.0000 0.52990  0.44220  0.59270  Biso   1.000  C
  C55      1.0000 0.52990  0.05780  0.09270  Biso   1.000  C
  C56      1.0000 0.47010  0.55780  0.40730  Biso   1.000  C
  H1       1.0000 0.58400  0.84400  0.58200  Biso   1.000  H
  H2       1.0000 0.41600  0.34400  0.91800  Biso   1.000  H
  H3       1.0000 0.41600  0.15600  0.41800  Biso   1.000  H
  H4       1.0000 0.58400  0.65600  0.08200  Biso   1.000  H
  H5       1.0000 0.59300  0.81400  0.75000  Biso   1.000  H
  H6       1.0000 0.40700  0.31400  0.75000  Biso   1.000  H
  H7       1.0000 0.40700  0.18600  0.25000  Biso   1.000  H
  H8       1.0000 0.59300  0.68600  0.25000  Biso   1.000  H
  H9       1.0000 0.42300  0.78200  0.90900  Biso   1.000  H
  H10      1.0000 0.57700  0.28200  0.59100  Biso   1.000  H
  H11      1.0000 0.57700  0.21800  0.09100  Biso   1.000  H
  H12      1.0000 0.42300  0.71800  0.40900  Biso   1.000  H
  H13      1.0000 0.42500  0.73600  0.78400  Biso   1.000  H
  H14      1.0000 0.57500  0.23600  0.71600  Biso   1.000  H
  H15      1.0000 0.57500  0.26400  0.21600  Biso   1.000  H
  H16      1.0000 0.42500  0.76400  0.28400  Biso   1.000  H
  H17      1.0000 0.15130  0.74660  0.91940  Biso   1.000  H
  H18      1.0000 0.84870  0.24660  0.58060  Biso   1.000  H
  H19      1.0000 0.84870  0.25340  0.08060  Biso   1.000  H
  H20      1.0000 0.15130  0.75340  0.41940  Biso   1.000  H
  H21      1.0000 0.20280  0.64250  0.91530  Biso   1.000  H
  H22      1.0000 0.79720  0.14250  0.58470  Biso   1.000  H
  H23      1.0000 0.79720  0.35750  0.08470  Biso   1.000  H
  H24      1.0000 0.20280  0.85750  0.41530  Biso   1.000  H
  H25      1.0000 0.76150  0.61190  0.65050  Biso   1.000  H
  H26      1.0000 0.23850  0.11190  0.84950  Biso   1.000  H
  H27      1.0000 0.23850  0.38810  0.34950  Biso   1.000  H
  H28      1.0000 0.76150  0.88810  0.15050  Biso   1.000  H
  H29      1.0000 0.72140  0.71610  0.66050  Biso   1.000  H
  H30      1.0000 0.27860  0.21610  0.83950  Biso   1.000  H
  H31      1.0000 0.27860  0.28390  0.33950  Biso   1.000  H
  H32      1.0000 0.72140  0.78390  0.16050  Biso   1.000  H
  H33      1.0000 0.28000  0.44220  0.89580  Biso   1.000  H
  H34      1.0000 0.72000  0.94220  0.60420  Biso   1.000  H
  H35      1.0000 0.72000  0.55780  0.10420  Biso   1.000  H
  H36      1.0000 0.28000  0.05780  0.39580  Biso   1.000  H
  H37      1.0000 0.24150  0.54690  0.91720  Biso   1.000  H
  H38      1.0000 0.75850  0.04690  0.58280  Biso   1.000  H
  H39      1.0000 0.75850  0.45310  0.08280  Biso   1.000  H
  H40      1.0000 0.24150  0.95310  0.41720  Biso   1.000  H
  H41      1.0000 0.79960  0.51740  0.63260  Biso   1.000  H
  H42      1.0000 0.20040  0.01740  0.86740  Biso   1.000  H
  H43      1.0000 0.20040  0.48260  0.36740  Biso   1.000  H
  H44      1.0000 0.79960  0.98260  0.13260  Biso   1.000  H
  H45      1.0000 0.85030  0.41370  0.61910  Biso   1.000  H
  H46      1.0000 0.14970  0.91370  0.88090  Biso   1.000  H
  H47      1.0000 0.14970  0.58630  0.38090  Biso   1.000  H
  H48      1.0000 0.85030  0.08630  0.11910  Biso   1.000  H
  H49      1.0000 0.50480  0.01120  0.32340  Biso   1.000  H
  H50      1.0000 0.49520  0.51120  0.17660  Biso   1.000  H
  H51      1.0000 0.49520  0.98880  0.67660  Biso   1.000  H
  H52      1.0000 0.50480  0.48880  0.82340  Biso   1.000  H
  H53      1.0000 0.44960  0.90360  0.84400  Biso   1.000  H
  H54      1.0000 0.55040  0.40360  0.65600  Biso   1.000  H
  H55      1.0000 0.55040  0.09640  0.15600  Biso   1.000  H
  H56      1.0000 0.44960  0.59640  0.34400  Biso   1.000  H
