data_image0
_cell_length_a       11.1706
_cell_length_b       8.6735
_cell_length_c       19.0956
_cell_angle_alpha    90
_cell_angle_beta     100.978
_cell_angle_gamma    90

_symmetry_space_group_name_H-M    "P 1"
_symmetry_int_tables_number       1

loop_
  _symmetry_equiv_pos_as_xyz
  'x, y, z'

loop_
  _atom_site_label
  _atom_site_occupancy
  _atom_site_fract_x
  _atom_site_fract_y
  _atom_site_fract_z
  _atom_site_thermal_displace_type
  _atom_site_B_iso_or_equiv
  _atom_site_type_symbol
  Cu1      1.0000 0.40542  0.22472  0.23431  Biso   1.000  Cu
  Cu2      1.0000 0.09458  0.72472  0.26569  Biso   1.000  Cu
  Cu3      1.0000 0.59458  0.77528  0.76569  Biso   1.000  Cu
  Cu4      1.0000 0.90542  0.27528  0.73431  Biso   1.000  Cu
  S1       1.0000 0.39013  0.38008  0.11883  Biso   1.000  S
  S2       1.0000 0.10987  0.88008  0.38117  Biso   1.000  S
  S3       1.0000 0.60987  0.61992  0.88117  Biso   1.000  S
  S4       1.0000 0.89013  0.11992  0.61883  Biso   1.000  S
  S5       1.0000 0.51157  0.14604  0.39459  Biso   1.000  S
  S6       1.0000 0.98843  0.64604  0.10541  Biso   1.000  S
  S7       1.0000 0.48843  0.85396  0.60541  Biso   1.000  S
  S8       1.0000 0.01157  0.35396  0.89459  Biso   1.000  S
  S9       1.0000 0.05933  0.47654  0.29022  Biso   1.000  S
  S10      1.0000 0.44067  0.97654  0.20978  Biso   1.000  S
  S11      1.0000 0.94067  0.52346  0.70978  Biso   1.000  S
  S12      1.0000 0.55933  0.02346  0.79022  Biso   1.000  S
  N1       1.0000 0.48200  0.21330  0.02977  Biso   1.000  N
  N2       1.0000 0.01800  0.71330  0.47023  Biso   1.000  N
  N3       1.0000 0.51800  0.78670  0.97023  Biso   1.000  N
  N4       1.0000 0.98200  0.28670  0.52977  Biso   1.000  N
  N5       1.0000 0.60340  0.42740  0.07782  Biso   1.000  N
  N6       1.0000 0.89660  0.92740  0.42218  Biso   1.000  N
  N7       1.0000 0.39660  0.57260  0.92218  Biso   1.000  N
  N8       1.0000 0.10340  0.07260  0.57782  Biso   1.000  N
  N9       1.0000 0.55450  0.36940  0.26678  Biso   1.000  N
  N10      1.0000 0.94550  0.86940  0.23322  Biso   1.000  N
  N11      1.0000 0.44550  0.63060  0.73322  Biso   1.000  N
  N12      1.0000 0.05450  0.13060  0.76678  Biso   1.000  N
  N13      1.0000 0.65360  0.32050  0.49195  Biso   1.000  N
  N14      1.0000 0.84640  0.82050  0.00805  Biso   1.000  N
  N15      1.0000 0.34640  0.67950  0.50805  Biso   1.000  N
  N16      1.0000 0.15360  0.17950  0.99195  Biso   1.000  N
  N17      1.0000 0.46320  0.23540  0.51544  Biso   1.000  N
  N18      1.0000 0.03680  0.73540  0.98456  Biso   1.000  N
  N19      1.0000 0.53680  0.76460  0.48456  Biso   1.000  N
  N20      1.0000 0.96320  0.26460  0.01544  Biso   1.000  N
  N21      1.0000 0.25790  0.31500  0.25756  Biso   1.000  N
  N22      1.0000 0.24210  0.81500  0.24244  Biso   1.000  N
  N23      1.0000 0.74210  0.68500  0.74244  Biso   1.000  N
  N24      1.0000 0.75790  0.18500  0.75756  Biso   1.000  N
  C1       1.0000 0.50660  0.33750  0.07088  Biso   1.000  C
  C2       1.0000 0.99340  0.83750  0.42912  Biso   1.000  C
  C3       1.0000 0.49340  0.66250  0.92912  Biso   1.000  C
  C4       1.0000 0.00660  0.16250  0.57088  Biso   1.000  C
  C5       1.0000 0.56420  0.17950  0.99002  Biso   1.000  C
  C6       1.0000 0.93580  0.67950  0.50998  Biso   1.000  C
  C7       1.0000 0.43580  0.82050  0.00998  Biso   1.000  C
  C8       1.0000 0.06420  0.32050  0.49002  Biso   1.000  C
  H1       1.0000 0.55050  0.09490  0.95960  Biso   1.000  H
  H2       1.0000 0.94950  0.59490  0.54040  Biso   1.000  H
  H3       1.0000 0.44950  0.90510  0.04040  Biso   1.000  H
  H4       1.0000 0.05050  0.40510  0.45960  Biso   1.000  H
  C9       1.0000 0.66800  0.26420  0.99206  Biso   1.000  C
  C10      1.0000 0.83200  0.76420  0.50794  Biso   1.000  C
  C11      1.0000 0.33200  0.73580  0.00794  Biso   1.000  C
  C12      1.0000 0.16800  0.23580  0.49206  Biso   1.000  C
  H5       1.0000 0.72480  0.23910  0.96400  Biso   1.000  H
  H6       1.0000 0.77520  0.73910  0.53600  Biso   1.000  H
  H7       1.0000 0.27520  0.76090  0.03600  Biso   1.000  H
  H8       1.0000 0.22480  0.26090  0.46400  Biso   1.000  H
  C13      1.0000 0.68420  0.38750  0.03729  Biso   1.000  C
  C14      1.0000 0.81580  0.88750  0.46271  Biso   1.000  C
  C15      1.0000 0.31580  0.61250  0.96271  Biso   1.000  C
  C16      1.0000 0.18420  0.11250  0.53729  Biso   1.000  C
  H9       1.0000 0.75440  0.44650  0.04010  Biso   1.000  H
  H10      1.0000 0.74560  0.94650  0.45990  Biso   1.000  H
  H11      1.0000 0.24560  0.55350  0.95990  Biso   1.000  H
  H12      1.0000 0.25440  0.05350  0.54010  Biso   1.000  H
  C17      1.0000 0.45170  0.54110  0.17298  Biso   1.000  C
  C18      1.0000 0.04830  0.04110  0.32702  Biso   1.000  C
  C19      1.0000 0.54830  0.45890  0.82702  Biso   1.000  C
  C20      1.0000 0.95170  0.95890  0.67298  Biso   1.000  C
  H13      1.0000 0.47920  0.61730  0.14240  Biso   1.000  H
  H14      1.0000 0.02080  0.11730  0.35760  Biso   1.000  H
  H15      1.0000 0.52080  0.38270  0.85760  Biso   1.000  H
  H16      1.0000 0.97920  0.88270  0.64240  Biso   1.000  H
  H17      1.0000 0.38650  0.58750  0.19280  Biso   1.000  H
  H18      1.0000 0.11350  0.08750  0.30720  Biso   1.000  H
  H19      1.0000 0.61350  0.41250  0.80720  Biso   1.000  H
  H20      1.0000 0.88650  0.91250  0.69280  Biso   1.000  H
  C21      1.0000 0.55570  0.50520  0.23334  Biso   1.000  C
  C22      1.0000 0.94430  0.00520  0.26666  Biso   1.000  C
  C23      1.0000 0.44430  0.49480  0.76666  Biso   1.000  C
  C24      1.0000 0.05570  0.99480  0.73334  Biso   1.000  C
  C25      1.0000 0.64690  0.61290  0.25452  Biso   1.000  C
  C26      1.0000 0.85310  0.11290  0.24548  Biso   1.000  C
  C27      1.0000 0.35310  0.38710  0.74548  Biso   1.000  C
  C28      1.0000 0.14690  0.88710  0.75452  Biso   1.000  C
  H21      1.0000 0.64540  0.70660  0.23070  Biso   1.000  H
  H22      1.0000 0.85460  0.20660  0.26930  Biso   1.000  H
  H23      1.0000 0.35460  0.29340  0.76930  Biso   1.000  H
  H24      1.0000 0.14540  0.79340  0.73070  Biso   1.000  H
  C29      1.0000 0.73920  0.58060  0.31075  Biso   1.000  C
  C30      1.0000 0.76080  0.08060  0.18925  Biso   1.000  C
  C31      1.0000 0.26080  0.41940  0.68925  Biso   1.000  C
  C32      1.0000 0.23920  0.91940  0.81075  Biso   1.000  C
  H25      1.0000 0.80150  0.65130  0.32540  Biso   1.000  H
  H26      1.0000 0.69850  0.15130  0.17460  Biso   1.000  H
  H27      1.0000 0.19850  0.34870  0.67460  Biso   1.000  H
  H28      1.0000 0.30150  0.84870  0.82540  Biso   1.000  H
  C33      1.0000 0.73780  0.44200  0.34490  Biso   1.000  C
  C34      1.0000 0.76220  0.94200  0.15510  Biso   1.000  C
  C35      1.0000 0.26220  0.55800  0.65510  Biso   1.000  C
  C36      1.0000 0.23780  0.05800  0.84490  Biso   1.000  C
  H29      1.0000 0.79930  0.41790  0.38340  Biso   1.000  H
  H30      1.0000 0.70070  0.91790  0.11660  Biso   1.000  H
  H31      1.0000 0.20070  0.58210  0.61660  Biso   1.000  H
  H32      1.0000 0.29930  0.08210  0.88340  Biso   1.000  H
  C37      1.0000 0.64550  0.33880  0.32216  Biso   1.000  C
  C38      1.0000 0.85450  0.83880  0.17784  Biso   1.000  C
  C39      1.0000 0.35450  0.66120  0.67784  Biso   1.000  C
  C40      1.0000 0.14550  0.16120  0.82216  Biso   1.000  C
  C41      1.0000 0.64400  0.18360  0.35597  Biso   1.000  C
  C42      1.0000 0.85600  0.68360  0.14403  Biso   1.000  C
  C43      1.0000 0.35600  0.81640  0.64403  Biso   1.000  C
  C44      1.0000 0.14400  0.31640  0.85597  Biso   1.000  C
  H33      1.0000 0.71630  0.17360  0.39300  Biso   1.000  H
  H34      1.0000 0.78370  0.67360  0.10700  Biso   1.000  H
  H35      1.0000 0.28370  0.82640  0.60700  Biso   1.000  H
  H36      1.0000 0.21630  0.32640  0.89300  Biso   1.000  H
  H37      1.0000 0.64870  0.10550  0.32020  Biso   1.000  H
  H38      1.0000 0.85130  0.60550  0.17980  Biso   1.000  H
  H39      1.0000 0.35130  0.89450  0.67980  Biso   1.000  H
  H40      1.0000 0.14870  0.39450  0.82020  Biso   1.000  H
  C45      1.0000 0.54860  0.24650  0.47565  Biso   1.000  C
  C46      1.0000 0.95140  0.74650  0.02435  Biso   1.000  C
  C47      1.0000 0.45140  0.75350  0.52435  Biso   1.000  C
  C48      1.0000 0.04860  0.25350  0.97565  Biso   1.000  C
  C49      1.0000 0.67360  0.39130  0.55490  Biso   1.000  C
  C50      1.0000 0.82640  0.89130  0.94510  Biso   1.000  C
  C51      1.0000 0.32640  0.60870  0.44510  Biso   1.000  C
  C52      1.0000 0.17360  0.10870  0.05490  Biso   1.000  C
  H41      1.0000 0.74610  0.44540  0.56860  Biso   1.000  H
  H42      1.0000 0.75390  0.94540  0.93140  Biso   1.000  H
  H43      1.0000 0.25390  0.55460  0.43140  Biso   1.000  H
  H44      1.0000 0.24610  0.05460  0.06860  Biso   1.000  H
  C53      1.0000 0.59360  0.38840  0.59970  Biso   1.000  C
  C54      1.0000 0.90640  0.88840  0.90030  Biso   1.000  C
  C55      1.0000 0.40640  0.61160  0.40030  Biso   1.000  C
  C56      1.0000 0.09360  0.11160  0.09970  Biso   1.000  C
  H45      1.0000 0.60950  0.43880  0.64350  Biso   1.000  H
  H46      1.0000 0.89050  0.93880  0.85650  Biso   1.000  H
  H47      1.0000 0.39050  0.56120  0.35650  Biso   1.000  H
  H48      1.0000 0.10950  0.06120  0.14350  Biso   1.000  H
  C57      1.0000 0.48980  0.30900  0.57800  Biso   1.000  C
  C58      1.0000 0.01020  0.80900  0.92200  Biso   1.000  C
  C59      1.0000 0.51020  0.69100  0.42200  Biso   1.000  C
  C60      1.0000 0.98980  0.19100  0.07800  Biso   1.000  C
  H49      1.0000 0.43340  0.30510  0.60800  Biso   1.000  H
  H50      1.0000 0.06660  0.80510  0.89200  Biso   1.000  H
  H51      1.0000 0.56660  0.69490  0.39200  Biso   1.000  H
  H52      1.0000 0.93340  0.19490  0.10800  Biso   1.000  H
  C61      1.0000 0.17730  0.38380  0.26969  Biso   1.000  C
  C62      1.0000 0.32270  0.88380  0.23031  Biso   1.000  C
  C63      1.0000 0.82270  0.61620  0.73031  Biso   1.000  C
  C64      1.0000 0.67730  0.11620  0.76969  Biso   1.000  C
