data_image0
_cell_length_a       19.122
_cell_length_b       18.499
_cell_length_c       7.2538
_cell_angle_alpha    90
_cell_angle_beta     91.424
_cell_angle_gamma    90

_symmetry_space_group_name_H-M    "P 1"
_symmetry_int_tables_number       1

loop_
  _symmetry_equiv_pos_as_xyz
  'x, y, z'

loop_
  _atom_site_label
  _atom_site_occupancy
  _atom_site_fract_x
  _atom_site_fract_y
  _atom_site_fract_z
  _atom_site_thermal_displace_type
  _atom_site_B_iso_or_equiv
  _atom_site_type_symbol
  Cu1      1.0000 0.50000  0.42445  0.50000  Biso   1.000  Cu
  Cu2      1.0000 0.00000  0.92445  0.50000  Biso   1.000  Cu
  Cu3      1.0000 0.50000  0.57555  0.50000  Biso   1.000  Cu
  Cu4      1.0000 0.00000  0.07555  0.50000  Biso   1.000  Cu
  I1       1.0000 0.42162  0.50000  0.73180  Biso   1.000  I
  I2       1.0000 0.92162  0.00000  0.73180  Biso   1.000  I
  I3       1.0000 0.57838  0.50000  0.26820  Biso   1.000  I
  I4       1.0000 0.07838  0.00000  0.26820  Biso   1.000  I
  N1       1.0000 0.42942  0.36350  0.34880  Biso   1.000  N
  N2       1.0000 0.92942  0.86350  0.34880  Biso   1.000  N
  N3       1.0000 0.57058  0.36350  0.65120  Biso   1.000  N
  N4       1.0000 0.07058  0.86350  0.65120  Biso   1.000  N
  N5       1.0000 0.57058  0.63650  0.65120  Biso   1.000  N
  N6       1.0000 0.07058  0.13650  0.65120  Biso   1.000  N
  N7       1.0000 0.42942  0.63650  0.34880  Biso   1.000  N
  N8       1.0000 0.92942  0.13650  0.34880  Biso   1.000  N
  O1       1.0000 0.31400  0.22740  0.82920  Biso   1.000  O
  O2       1.0000 0.81400  0.72740  0.82920  Biso   1.000  O
  O3       1.0000 0.68600  0.22740  0.17080  Biso   1.000  O
  O4       1.0000 0.18600  0.72740  0.17080  Biso   1.000  O
  O5       1.0000 0.68600  0.77260  0.17080  Biso   1.000  O
  O6       1.0000 0.18600  0.27260  0.17080  Biso   1.000  O
  O7       1.0000 0.31400  0.77260  0.82920  Biso   1.000  O
  O8       1.0000 0.81400  0.27260  0.82920  Biso   1.000  O
  O9       1.0000 0.31210  0.08920  0.67130  Biso   1.000  O
  O10      1.0000 0.81210  0.58920  0.67130  Biso   1.000  O
  O11      1.0000 0.68790  0.08920  0.32870  Biso   1.000  O
  O12      1.0000 0.18790  0.58920  0.32870  Biso   1.000  O
  O13      1.0000 0.68790  0.91080  0.32870  Biso   1.000  O
  O14      1.0000 0.18790  0.41080  0.32870  Biso   1.000  O
  O15      1.0000 0.31210  0.91080  0.67130  Biso   1.000  O
  O16      1.0000 0.81210  0.41080  0.67130  Biso   1.000  O
  O17      1.0000 0.49390  0.16290  0.70500  Biso   1.000  O
  O18      1.0000 0.99390  0.66290  0.70500  Biso   1.000  O
  O19      1.0000 0.50610  0.16290  0.29500  Biso   1.000  O
  O20      1.0000 0.00610  0.66290  0.29500  Biso   1.000  O
  O21      1.0000 0.50610  0.83710  0.29500  Biso   1.000  O
  O22      1.0000 0.00610  0.33710  0.29500  Biso   1.000  O
  O23      1.0000 0.49390  0.83710  0.70500  Biso   1.000  O
  O24      1.0000 0.99390  0.33710  0.70500  Biso   1.000  O
  O25      1.0000 0.39600  0.00000  0.96400  Biso   1.000  O
  O26      1.0000 0.89600  0.50000  0.96400  Biso   1.000  O
  O27      1.0000 0.60400  0.00000  0.03600  Biso   1.000  O
  O28      1.0000 0.10400  0.50000  0.03600  Biso   1.000  O
  S1       1.0000 0.25370  0.05820  0.56870  Biso   1.000  S
  S2       1.0000 0.75370  0.55820  0.56870  Biso   1.000  S
  S3       1.0000 0.74630  0.05820  0.43130  Biso   1.000  S
  S4       1.0000 0.24630  0.55820  0.43130  Biso   1.000  S
  S5       1.0000 0.74630  0.94180  0.43130  Biso   1.000  S
  S6       1.0000 0.24630  0.44180  0.43130  Biso   1.000  S
  S7       1.0000 0.25370  0.94180  0.56870  Biso   1.000  S
  S8       1.0000 0.75370  0.44180  0.56870  Biso   1.000  S
  C1       1.0000 0.38190  0.31950  0.42440  Biso   1.000  C
  C2       1.0000 0.88190  0.81950  0.42440  Biso   1.000  C
  C3       1.0000 0.61810  0.31950  0.57560  Biso   1.000  C
  C4       1.0000 0.11810  0.81950  0.57560  Biso   1.000  C
  C5       1.0000 0.61810  0.68050  0.57560  Biso   1.000  C
  C6       1.0000 0.11810  0.18050  0.57560  Biso   1.000  C
  C7       1.0000 0.38190  0.68050  0.42440  Biso   1.000  C
  C8       1.0000 0.88190  0.18050  0.42440  Biso   1.000  C
  H1       1.0000 0.38130  0.31660  0.55240  Biso   1.000  H
  H2       1.0000 0.88130  0.81660  0.55240  Biso   1.000  H
  H3       1.0000 0.61870  0.31660  0.44760  Biso   1.000  H
  H4       1.0000 0.11870  0.81660  0.44760  Biso   1.000  H
  H5       1.0000 0.61870  0.68340  0.44760  Biso   1.000  H
  H6       1.0000 0.11870  0.18340  0.44760  Biso   1.000  H
  H7       1.0000 0.38130  0.68340  0.55240  Biso   1.000  H
  H8       1.0000 0.88130  0.18340  0.55240  Biso   1.000  H
  C9       1.0000 0.33440  0.27860  0.32580  Biso   1.000  C
  C10      1.0000 0.83440  0.77860  0.32580  Biso   1.000  C
  C11      1.0000 0.66560  0.27860  0.67420  Biso   1.000  C
  C12      1.0000 0.16560  0.77860  0.67420  Biso   1.000  C
  C13      1.0000 0.66560  0.72140  0.67420  Biso   1.000  C
  C14      1.0000 0.16560  0.22140  0.67420  Biso   1.000  C
  C15      1.0000 0.33440  0.72140  0.32580  Biso   1.000  C
  C16      1.0000 0.83440  0.22140  0.32580  Biso   1.000  C
  H9       1.0000 0.30140  0.25150  0.38730  Biso   1.000  H
  H10      1.0000 0.80140  0.75150  0.38730  Biso   1.000  H
  H11      1.0000 0.69860  0.25150  0.61270  Biso   1.000  H
  H12      1.0000 0.19860  0.75150  0.61270  Biso   1.000  H
  H13      1.0000 0.69860  0.74850  0.61270  Biso   1.000  H
  H14      1.0000 0.19860  0.24850  0.61270  Biso   1.000  H
  H15      1.0000 0.30140  0.74850  0.38730  Biso   1.000  H
  H16      1.0000 0.80140  0.24850  0.38730  Biso   1.000  H
  C17      1.0000 0.33530  0.27750  0.13240  Biso   1.000  C
  C18      1.0000 0.83530  0.77750  0.13240  Biso   1.000  C
  C19      1.0000 0.66470  0.27750  0.86760  Biso   1.000  C
  C20      1.0000 0.16470  0.77750  0.86760  Biso   1.000  C
  C21      1.0000 0.66470  0.72250  0.86760  Biso   1.000  C
  C22      1.0000 0.16470  0.22250  0.86760  Biso   1.000  C
  C23      1.0000 0.33530  0.72250  0.13240  Biso   1.000  C
  C24      1.0000 0.83530  0.22250  0.13240  Biso   1.000  C
  C25      1.0000 0.38210  0.32470  0.05460  Biso   1.000  C
  C26      1.0000 0.88210  0.82470  0.05460  Biso   1.000  C
  C27      1.0000 0.61790  0.32470  0.94540  Biso   1.000  C
  C28      1.0000 0.11790  0.82470  0.94540  Biso   1.000  C
  C29      1.0000 0.61790  0.67530  0.94540  Biso   1.000  C
  C30      1.0000 0.11790  0.17530  0.94540  Biso   1.000  C
  C31      1.0000 0.38210  0.67530  0.05460  Biso   1.000  C
  C32      1.0000 0.88210  0.17530  0.05460  Biso   1.000  C
  H17      1.0000 0.38300  0.32940  0.92700  Biso   1.000  H
  H18      1.0000 0.88300  0.82940  0.92700  Biso   1.000  H
  H19      1.0000 0.61700  0.32940  0.07300  Biso   1.000  H
  H20      1.0000 0.11700  0.82940  0.07300  Biso   1.000  H
  H21      1.0000 0.61700  0.67060  0.07300  Biso   1.000  H
  H22      1.0000 0.11700  0.17060  0.07300  Biso   1.000  H
  H23      1.0000 0.38300  0.67060  0.92700  Biso   1.000  H
  H24      1.0000 0.88300  0.17060  0.92700  Biso   1.000  H
  C33      1.0000 0.42780  0.36560  0.16540  Biso   1.000  C
  C34      1.0000 0.92780  0.86560  0.16540  Biso   1.000  C
  C35      1.0000 0.57220  0.36560  0.83460  Biso   1.000  C
  C36      1.0000 0.07220  0.86560  0.83460  Biso   1.000  C
  C37      1.0000 0.57220  0.63440  0.83460  Biso   1.000  C
  C38      1.0000 0.07220  0.13440  0.83460  Biso   1.000  C
  C39      1.0000 0.42780  0.63440  0.16540  Biso   1.000  C
  C40      1.0000 0.92780  0.13440  0.16540  Biso   1.000  C
  H25      1.0000 0.45910  0.39610  0.10750  Biso   1.000  H
  H26      1.0000 0.95910  0.89610  0.10750  Biso   1.000  H
  H27      1.0000 0.54090  0.39610  0.89250  Biso   1.000  H
  H28      1.0000 0.04090  0.89610  0.89250  Biso   1.000  H
  H29      1.0000 0.54090  0.60390  0.89250  Biso   1.000  H
  H30      1.0000 0.04090  0.10390  0.89250  Biso   1.000  H
  H31      1.0000 0.45910  0.60390  0.10750  Biso   1.000  H
  H32      1.0000 0.95910  0.10390  0.10750  Biso   1.000  H
  C41      1.0000 0.28520  0.23050  0.01070  Biso   1.000  C
  C42      1.0000 0.78520  0.73050  0.01070  Biso   1.000  C
  C43      1.0000 0.71480  0.23050  0.98930  Biso   1.000  C
  C44      1.0000 0.21480  0.73050  0.98930  Biso   1.000  C
  C45      1.0000 0.71480  0.76950  0.98930  Biso   1.000  C
  C46      1.0000 0.21480  0.26950  0.98930  Biso   1.000  C
  C47      1.0000 0.28520  0.76950  0.01070  Biso   1.000  C
  C48      1.0000 0.78520  0.26950  0.01070  Biso   1.000  C
  C49      1.0000 0.27770  0.15690  0.09870  Biso   1.000  C
  C50      1.0000 0.77770  0.65690  0.09870  Biso   1.000  C
  C51      1.0000 0.72230  0.15690  0.90130  Biso   1.000  C
  C52      1.0000 0.22230  0.65690  0.90130  Biso   1.000  C
  C53      1.0000 0.72230  0.84310  0.90130  Biso   1.000  C
  C54      1.0000 0.22230  0.34310  0.90130  Biso   1.000  C
  C55      1.0000 0.27770  0.84310  0.09870  Biso   1.000  C
  C56      1.0000 0.77770  0.34310  0.09870  Biso   1.000  C
  H33      1.0000 0.24690  0.12760  0.02380  Biso   1.000  H
  H34      1.0000 0.74690  0.62760  0.02380  Biso   1.000  H
  H35      1.0000 0.75310  0.12760  0.97620  Biso   1.000  H
  H36      1.0000 0.25310  0.62760  0.97620  Biso   1.000  H
  H37      1.0000 0.75310  0.87240  0.97620  Biso   1.000  H
  H38      1.0000 0.25310  0.37240  0.97620  Biso   1.000  H
  H39      1.0000 0.24690  0.87240  0.02380  Biso   1.000  H
  H40      1.0000 0.74690  0.37240  0.02380  Biso   1.000  H
  H41      1.0000 0.25880  0.16220  0.21930  Biso   1.000  H
  H42      1.0000 0.75880  0.66220  0.21930  Biso   1.000  H
  H43      1.0000 0.74120  0.16220  0.78070  Biso   1.000  H
  H44      1.0000 0.24120  0.66220  0.78070  Biso   1.000  H
  H45      1.0000 0.74120  0.83780  0.78070  Biso   1.000  H
  H46      1.0000 0.24120  0.33780  0.78070  Biso   1.000  H
  H47      1.0000 0.25880  0.83780  0.21930  Biso   1.000  H
  H48      1.0000 0.75880  0.33780  0.21930  Biso   1.000  H
  H49      1.0000 0.32280  0.13410  0.10880  Biso   1.000  H
  H50      1.0000 0.82280  0.63410  0.10880  Biso   1.000  H
  H51      1.0000 0.67720  0.13410  0.89120  Biso   1.000  H
  H52      1.0000 0.17720  0.63410  0.89120  Biso   1.000  H
  H53      1.0000 0.67720  0.86590  0.89120  Biso   1.000  H
  H54      1.0000 0.17720  0.36590  0.89120  Biso   1.000  H
  H55      1.0000 0.32280  0.86590  0.10880  Biso   1.000  H
  H56      1.0000 0.82280  0.36590  0.10880  Biso   1.000  H
  C57      1.0000 0.29120  0.00000  0.41950  Biso   1.000  C
  C58      1.0000 0.79120  0.50000  0.41950  Biso   1.000  C
  C59      1.0000 0.70880  0.00000  0.58050  Biso   1.000  C
  C60      1.0000 0.20880  0.50000  0.58050  Biso   1.000  C
  C61      1.0000 0.20760  0.00000  0.71150  Biso   1.000  C
  C62      1.0000 0.70760  0.50000  0.71150  Biso   1.000  C
  C63      1.0000 0.79240  0.00000  0.28850  Biso   1.000  C
  C64      1.0000 0.29240  0.50000  0.28850  Biso   1.000  C
  C65      1.0000 0.53530  0.12210  0.57700  Biso   1.000  C
  C66      1.0000 0.03530  0.62210  0.57700  Biso   1.000  C
  C67      1.0000 0.46470  0.12210  0.42300  Biso   1.000  C
  C68      1.0000 0.96470  0.62210  0.42300  Biso   1.000  C
  C69      1.0000 0.46470  0.87790  0.42300  Biso   1.000  C
  C70      1.0000 0.96470  0.37790  0.42300  Biso   1.000  C
  C71      1.0000 0.53530  0.87790  0.57700  Biso   1.000  C
  C72      1.0000 0.03530  0.37790  0.57700  Biso   1.000  C
  H57      1.0000 0.30600  0.18600  0.79600  Biso   1.000  H
  H58      1.0000 0.80600  0.68600  0.79600  Biso   1.000  H
  H59      1.0000 0.69400  0.18600  0.20400  Biso   1.000  H
  H60      1.0000 0.19400  0.68600  0.20400  Biso   1.000  H
  H61      1.0000 0.69400  0.81400  0.20400  Biso   1.000  H
  H62      1.0000 0.19400  0.31400  0.20400  Biso   1.000  H
  H63      1.0000 0.30600  0.81400  0.79600  Biso   1.000  H
  H64      1.0000 0.80600  0.31400  0.79600  Biso   1.000  H
