data_image0
_cell_length_a       11.7354
_cell_length_b       20.308
_cell_length_c       13.771
_cell_angle_alpha    90
_cell_angle_beta     107.289
_cell_angle_gamma    90

_symmetry_space_group_name_H-M    "P 1"
_symmetry_int_tables_number       1

loop_
  _symmetry_equiv_pos_as_xyz
  'x, y, z'

loop_
  _atom_site_label
  _atom_site_occupancy
  _atom_site_fract_x
  _atom_site_fract_y
  _atom_site_fract_z
  _atom_site_thermal_displace_type
  _atom_site_B_iso_or_equiv
  _atom_site_type_symbol
  Cu1      1.0000 0.61068  0.28044  0.98803  Biso   1.000  Cu
  Cu2      1.0000 0.38932  0.28044  0.01197  Biso   1.000  Cu
  Cu3      1.0000 0.11068  0.78044  0.98803  Biso   1.000  Cu
  Cu4      1.0000 0.88932  0.78044  0.01197  Biso   1.000  Cu
  Cu5      1.0000 0.50000  0.39557  0.00000  Biso   1.000  Cu
  Cu6      1.0000 0.00000  0.89557  0.00000  Biso   1.000  Cu
  Co1      1.0000 0.61349  0.32039  0.24522  Biso   1.000  Co
  Co2      1.0000 0.38651  0.32039  0.75478  Biso   1.000  Co
  Co3      1.0000 0.11349  0.82039  0.24522  Biso   1.000  Co
  Co4      1.0000 0.88651  0.82039  0.75478  Biso   1.000  Co
  S1       1.0000 0.48077  0.24314  0.16287  Biso   1.000  S
  S2       1.0000 0.51923  0.24314  0.83713  Biso   1.000  S
  S3       1.0000 0.98077  0.74314  0.16287  Biso   1.000  S
  S4       1.0000 0.01923  0.74314  0.83713  Biso   1.000  S
  C1       1.0000 0.36840  0.24530  0.23630  Biso   1.000  C
  C2       1.0000 0.63160  0.24530  0.76370  Biso   1.000  C
  C3       1.0000 0.86840  0.74530  0.23630  Biso   1.000  C
  C4       1.0000 0.13160  0.74530  0.76370  Biso   1.000  C
  C5       1.0000 0.44350  0.26390  0.34520  Biso   1.000  C
  C6       1.0000 0.55650  0.26390  0.65480  Biso   1.000  C
  C7       1.0000 0.94350  0.76390  0.34520  Biso   1.000  C
  C8       1.0000 0.05650  0.76390  0.65480  Biso   1.000  C
  H1       1.0000 0.49790  0.22630  0.37390  Biso   1.000  H
  H2       1.0000 0.50210  0.22630  0.62610  Biso   1.000  H
  H3       1.0000 0.99790  0.72630  0.37390  Biso   1.000  H
  H4       1.0000 0.00210  0.72630  0.62610  Biso   1.000  H
  C9       1.0000 0.36570  0.27660  0.41550  Biso   1.000  C
  C10      1.0000 0.63430  0.27660  0.58450  Biso   1.000  C
  C11      1.0000 0.86570  0.77660  0.41550  Biso   1.000  C
  C12      1.0000 0.13430  0.77660  0.58450  Biso   1.000  C
  C13      1.0000 0.26880  0.29470  0.19160  Biso   1.000  C
  C14      1.0000 0.73120  0.29470  0.80840  Biso   1.000  C
  C15      1.0000 0.76880  0.79470  0.19160  Biso   1.000  C
  C16      1.0000 0.23120  0.79470  0.80840  Biso   1.000  C
  H5       1.0000 0.30270  0.33910  0.19520  Biso   1.000  H
  H6       1.0000 0.69730  0.33910  0.80480  Biso   1.000  H
  H7       1.0000 0.80270  0.83910  0.19520  Biso   1.000  H
  H8       1.0000 0.19730  0.83910  0.80480  Biso   1.000  H
  H9       1.0000 0.22850  0.28340  0.12050  Biso   1.000  H
  H10      1.0000 0.77150  0.28340  0.87950  Biso   1.000  H
  H11      1.0000 0.72850  0.78340  0.12050  Biso   1.000  H
  H12      1.0000 0.27150  0.78340  0.87950  Biso   1.000  H
  H13      1.0000 0.21110  0.29340  0.23050  Biso   1.000  H
  H14      1.0000 0.78890  0.29340  0.76950  Biso   1.000  H
  H15      1.0000 0.71110  0.79340  0.23050  Biso   1.000  H
  H16      1.0000 0.28890  0.79340  0.76950  Biso   1.000  H
  C17      1.0000 0.31700  0.17590  0.23130  Biso   1.000  C
  C18      1.0000 0.68300  0.17590  0.76870  Biso   1.000  C
  C19      1.0000 0.81700  0.67590  0.23130  Biso   1.000  C
  C20      1.0000 0.18300  0.67590  0.76870  Biso   1.000  C
  H17      1.0000 0.38170  0.14450  0.26020  Biso   1.000  H
  H18      1.0000 0.61830  0.14450  0.73980  Biso   1.000  H
  H19      1.0000 0.88170  0.64450  0.26020  Biso   1.000  H
  H20      1.0000 0.11830  0.64450  0.73980  Biso   1.000  H
  H21      1.0000 0.25940  0.17430  0.27030  Biso   1.000  H
  H22      1.0000 0.74060  0.17430  0.72970  Biso   1.000  H
  H23      1.0000 0.75940  0.67430  0.27030  Biso   1.000  H
  H24      1.0000 0.24060  0.67430  0.72970  Biso   1.000  H
  H25      1.0000 0.27690  0.16430  0.16030  Biso   1.000  H
  H26      1.0000 0.72310  0.16430  0.83970  Biso   1.000  H
  H27      1.0000 0.77690  0.66430  0.16030  Biso   1.000  H
  H28      1.0000 0.22310  0.66430  0.83970  Biso   1.000  H
  N1       1.0000 0.51820  0.32230  0.34200  Biso   1.000  N
  N2       1.0000 0.48180  0.32230  0.65800  Biso   1.000  N
  N3       1.0000 0.01820  0.82230  0.34200  Biso   1.000  N
  N4       1.0000 0.98180  0.82230  0.65800  Biso   1.000  N
  H29      1.0000 0.56920  0.32850  0.40550  Biso   1.000  H
  H30      1.0000 0.43080  0.32850  0.59450  Biso   1.000  H
  H31      1.0000 0.06920  0.82850  0.40550  Biso   1.000  H
  H32      1.0000 0.93080  0.82850  0.59450  Biso   1.000  H
  H33      1.0000 0.46950  0.35810  0.32720  Biso   1.000  H
  H34      1.0000 0.53050  0.35810  0.67280  Biso   1.000  H
  H35      1.0000 0.96950  0.85810  0.32720  Biso   1.000  H
  H36      1.0000 0.03050  0.85810  0.67280  Biso   1.000  H
  O1       1.0000 0.35220  0.33590  0.43740  Biso   1.000  O
  O2       1.0000 0.64780  0.33590  0.56260  Biso   1.000  O
  O3       1.0000 0.85220  0.83590  0.43740  Biso   1.000  O
  O4       1.0000 0.14780  0.83590  0.56260  Biso   1.000  O
  O5       1.0000 0.32490  0.22810  0.44840  Biso   1.000  O
  O6       1.0000 0.67510  0.22810  0.55160  Biso   1.000  O
  O7       1.0000 0.82490  0.72810  0.44840  Biso   1.000  O
  O8       1.0000 0.17510  0.72810  0.55160  Biso   1.000  O
  S5       1.0000 0.72222  0.31296  0.13585  Biso   1.000  S
  S6       1.0000 0.27778  0.31296  0.86415  Biso   1.000  S
  S7       1.0000 0.22222  0.81296  0.13585  Biso   1.000  S
  S8       1.0000 0.77778  0.81296  0.86415  Biso   1.000  S
  C21      1.0000 0.82660  0.24480  0.19280  Biso   1.000  C
  C22      1.0000 0.17340  0.24480  0.80720  Biso   1.000  C
  C23      1.0000 0.32660  0.74480  0.19280  Biso   1.000  C
  C24      1.0000 0.67340  0.74480  0.80720  Biso   1.000  C
  C25      1.0000 0.84680  0.25200  0.30750  Biso   1.000  C
  C26      1.0000 0.15320  0.25200  0.69250  Biso   1.000  C
  C27      1.0000 0.34680  0.75200  0.30750  Biso   1.000  C
  C28      1.0000 0.65320  0.75200  0.69250  Biso   1.000  C
  H37      1.0000 0.88580  0.29570  0.32790  Biso   1.000  H
  H38      1.0000 0.11420  0.29570  0.67210  Biso   1.000  H
  H39      1.0000 0.38580  0.79570  0.32790  Biso   1.000  H
  H40      1.0000 0.61420  0.79570  0.67210  Biso   1.000  H
  C29      1.0000 0.93380  0.19870  0.36930  Biso   1.000  C
  C30      1.0000 0.06620  0.19870  0.63070  Biso   1.000  C
  C31      1.0000 0.43380  0.69870  0.36930  Biso   1.000  C
  C32      1.0000 0.56620  0.69870  0.63070  Biso   1.000  C
  C33      1.0000 0.77290  0.17760  0.15290  Biso   1.000  C
  C34      1.0000 0.22710  0.17760  0.84710  Biso   1.000  C
  C35      1.0000 0.27290  0.67760  0.15290  Biso   1.000  C
  C36      1.0000 0.72710  0.67760  0.84710  Biso   1.000  C
  H41      1.0000 0.69900  0.17090  0.17090  Biso   1.000  H
  H42      1.0000 0.30100  0.17090  0.82910  Biso   1.000  H
  H43      1.0000 0.19900  0.67090  0.17090  Biso   1.000  H
  H44      1.0000 0.80100  0.67090  0.82910  Biso   1.000  H
  H45      1.0000 0.75550  0.17640  0.07880  Biso   1.000  H
  H46      1.0000 0.24450  0.17640  0.92120  Biso   1.000  H
  H47      1.0000 0.25550  0.67640  0.07880  Biso   1.000  H
  H48      1.0000 0.74450  0.67640  0.92120  Biso   1.000  H
  H49      1.0000 0.83000  0.14280  0.18350  Biso   1.000  H
  H50      1.0000 0.17000  0.14280  0.81650  Biso   1.000  H
  H51      1.0000 0.33000  0.64280  0.18350  Biso   1.000  H
  H52      1.0000 0.67000  0.64280  0.81650  Biso   1.000  H
  C37      1.0000 0.94200  0.25630  0.16560  Biso   1.000  C
  C38      1.0000 0.05800  0.25630  0.83440  Biso   1.000  C
  C39      1.0000 0.44200  0.75630  0.16560  Biso   1.000  C
  C40      1.0000 0.55800  0.75630  0.83440  Biso   1.000  C
  H53      1.0000 0.92650  0.25140  0.09210  Biso   1.000  H
  H54      1.0000 0.07350  0.25140  0.90790  Biso   1.000  H
  H55      1.0000 0.42650  0.75140  0.09210  Biso   1.000  H
  H56      1.0000 0.57350  0.75140  0.90790  Biso   1.000  H
  H57      1.0000 0.97150  0.30080  0.18620  Biso   1.000  H
  H58      1.0000 0.02850  0.30080  0.81380  Biso   1.000  H
  H59      1.0000 0.47150  0.80080  0.18620  Biso   1.000  H
  H60      1.0000 0.52850  0.80080  0.81380  Biso   1.000  H
  H61      1.0000 0.00200  0.22400  0.20120  Biso   1.000  H
  H62      1.0000 0.99800  0.22400  0.79880  Biso   1.000  H
  H63      1.0000 0.50200  0.72400  0.20120  Biso   1.000  H
  H64      1.0000 0.49800  0.72400  0.79880  Biso   1.000  H
  N5       1.0000 0.72900  0.25410  0.32840  Biso   1.000  N
  N6       1.0000 0.27100  0.25410  0.67160  Biso   1.000  N
  N7       1.0000 0.22900  0.75410  0.32840  Biso   1.000  N
  N8       1.0000 0.77100  0.75410  0.67160  Biso   1.000  N
  H65      1.0000 0.74170  0.26340  0.39550  Biso   1.000  H
  H66      1.0000 0.25830  0.26340  0.60450  Biso   1.000  H
  H67      1.0000 0.24170  0.76340  0.39550  Biso   1.000  H
  H68      1.0000 0.75830  0.76340  0.60450  Biso   1.000  H
  H69      1.0000 0.69510  0.21350  0.31650  Biso   1.000  H
  H70      1.0000 0.30490  0.21350  0.68350  Biso   1.000  H
  H71      1.0000 0.19510  0.71350  0.31650  Biso   1.000  H
  H72      1.0000 0.80490  0.71350  0.68350  Biso   1.000  H
  O9       1.0000 0.04320  0.21380  0.39120  Biso   1.000  O
  O10      1.0000 0.95680  0.21380  0.60880  Biso   1.000  O
  O11      1.0000 0.54320  0.71380  0.39120  Biso   1.000  O
  O12      1.0000 0.45680  0.71380  0.60880  Biso   1.000  O
  O13      1.0000 0.89060  0.14720  0.39120  Biso   1.000  O
  O14      1.0000 0.10940  0.14720  0.60880  Biso   1.000  O
  O15      1.0000 0.39060  0.64720  0.39120  Biso   1.000  O
  O16      1.0000 0.60940  0.64720  0.60880  Biso   1.000  O
  S9       1.0000 0.49950  0.40266  0.15545  Biso   1.000  S
  S10      1.0000 0.50050  0.40266  0.84455  Biso   1.000  S
  S11      1.0000 0.99950  0.90266  0.15545  Biso   1.000  S
  S12      1.0000 0.00050  0.90266  0.84455  Biso   1.000  S
  C41      1.0000 0.59040  0.47590  0.21190  Biso   1.000  C
  C42      1.0000 0.40960  0.47590  0.78810  Biso   1.000  C
  C43      1.0000 0.09040  0.97590  0.21190  Biso   1.000  C
  C44      1.0000 0.90960  0.97590  0.78810  Biso   1.000  C
  C45      1.0000 0.64860  0.45440  0.32310  Biso   1.000  C
  C46      1.0000 0.35140  0.45440  0.67690  Biso   1.000  C
  C47      1.0000 0.14860  0.95440  0.32310  Biso   1.000  C
  C48      1.0000 0.85140  0.95440  0.67690  Biso   1.000  C
  H73      1.0000 0.58350  0.44440  0.35410  Biso   1.000  H
  H74      1.0000 0.41650  0.44440  0.64590  Biso   1.000  H
  H75      1.0000 0.08350  0.94440  0.35410  Biso   1.000  H
  H76      1.0000 0.91650  0.94440  0.64590  Biso   1.000  H
  C49      1.0000 0.72800  0.51000  0.38680  Biso   1.000  C
  C50      1.0000 0.27200  0.51000  0.61320  Biso   1.000  C
  C51      1.0000 0.22800  0.01000  0.38680  Biso   1.000  C
  C52      1.0000 0.77200  0.01000  0.61320  Biso   1.000  C
  C53      1.0000 0.50240  0.53310  0.20400  Biso   1.000  C
  C54      1.0000 0.49760  0.53310  0.79600  Biso   1.000  C
  C55      1.0000 0.00240  0.03310  0.20400  Biso   1.000  C
  C56      1.0000 0.99760  0.03310  0.79600  Biso   1.000  C
  H77      1.0000 0.44380  0.52110  0.23890  Biso   1.000  H
  H78      1.0000 0.55620  0.52110  0.76110  Biso   1.000  H
  H79      1.0000 0.94380  0.02110  0.23890  Biso   1.000  H
  H80      1.0000 0.05620  0.02110  0.76110  Biso   1.000  H
  H81      1.0000 0.54610  0.57240  0.23580  Biso   1.000  H
  H82      1.0000 0.45390  0.57240  0.76420  Biso   1.000  H
  H83      1.0000 0.04610  0.07240  0.23580  Biso   1.000  H
  H84      1.0000 0.95390  0.07240  0.76420  Biso   1.000  H
  H85      1.0000 0.46120  0.54210  0.13220  Biso   1.000  H
  H86      1.0000 0.53880  0.54210  0.86780  Biso   1.000  H
  H87      1.0000 0.96120  0.04210  0.13220  Biso   1.000  H
  H88      1.0000 0.03880  0.04210  0.86780  Biso   1.000  H
  C57      1.0000 0.68200  0.49330  0.15830  Biso   1.000  C
  C58      1.0000 0.31800  0.49330  0.84170  Biso   1.000  C
  C59      1.0000 0.18200  0.99330  0.15830  Biso   1.000  C
  C60      1.0000 0.81800  0.99330  0.84170  Biso   1.000  C
  H89      1.0000 0.73740  0.45630  0.16400  Biso   1.000  H
  H90      1.0000 0.26260  0.45630  0.83600  Biso   1.000  H
  H91      1.0000 0.23740  0.95630  0.16400  Biso   1.000  H
  H92      1.0000 0.76260  0.95630  0.83600  Biso   1.000  H
  H93      1.0000 0.64150  0.50220  0.08640  Biso   1.000  H
  H94      1.0000 0.35850  0.50220  0.91360  Biso   1.000  H
  H95      1.0000 0.14150  0.00220  0.08640  Biso   1.000  H
  H96      1.0000 0.85850  0.00220  0.91360  Biso   1.000  H
  H97      1.0000 0.72640  0.53250  0.18990  Biso   1.000  H
  H98      1.0000 0.27360  0.53250  0.81010  Biso   1.000  H
  H99      1.0000 0.22640  0.03250  0.18990  Biso   1.000  H
  H100     1.0000 0.77360  0.03250  0.81010  Biso   1.000  H
  N9       1.0000 0.71680  0.39280  0.32240  Biso   1.000  N
  N10      1.0000 0.28320  0.39280  0.67760  Biso   1.000  N
  N11      1.0000 0.21680  0.89280  0.32240  Biso   1.000  N
  N12      1.0000 0.78320  0.89280  0.67760  Biso   1.000  N
  H101     1.0000 0.75140  0.37940  0.38760  Biso   1.000  H
  H102     1.0000 0.24860  0.37940  0.61240  Biso   1.000  H
  H103     1.0000 0.25140  0.87940  0.38760  Biso   1.000  H
  H104     1.0000 0.74860  0.87940  0.61240  Biso   1.000  H
  H105     1.0000 0.77610  0.40110  0.29400  Biso   1.000  H
  H106     1.0000 0.22390  0.40110  0.70600  Biso   1.000  H
  H107     1.0000 0.27610  0.90110  0.29400  Biso   1.000  H
  H108     1.0000 0.72390  0.90110  0.70600  Biso   1.000  H
  O17      1.0000 0.83650  0.50740  0.39870  Biso   1.000  O
  O18      1.0000 0.16350  0.50740  0.60130  Biso   1.000  O
  O19      1.0000 0.33650  0.00740  0.39870  Biso   1.000  O
  O20      1.0000 0.66350  0.00740  0.60130  Biso   1.000  O
  O21      1.0000 0.67140  0.55180  0.41950  Biso   1.000  O
  O22      1.0000 0.32860  0.55180  0.58050  Biso   1.000  O
  O23      1.0000 0.17140  0.05180  0.41950  Biso   1.000  O
  O24      1.0000 0.82860  0.05180  0.58050  Biso   1.000  O
  Na1      1.0000 0.50000  0.55261  0.50000  Biso   1.000  Na
  Na2      1.0000 0.00000  0.05261  0.50000  Biso   1.000  Na
  Na3      1.0000 0.20796  0.15189  0.48415  Biso   1.000  Na
  Na4      1.0000 0.79204  0.15189  0.51585  Biso   1.000  Na
  Na5      1.0000 0.70796  0.65189  0.48415  Biso   1.000  Na
  Na6      1.0000 0.29204  0.65189  0.51585  Biso   1.000  Na
  O25      1.0000 0.38390  0.46780  0.39220  Biso   1.000  O
  O26      1.0000 0.61610  0.46780  0.60780  Biso   1.000  O
  O27      1.0000 0.88390  0.96780  0.39220  Biso   1.000  O
  O28      1.0000 0.11610  0.96780  0.60780  Biso   1.000  O
  H109     1.0000 0.31150  0.48310  0.35690  Biso   1.000  H
  H110     1.0000 0.68850  0.48310  0.64310  Biso   1.000  H
  H111     1.0000 0.81150  0.98310  0.35690  Biso   1.000  H
  H112     1.0000 0.18850  0.98310  0.64310  Biso   1.000  H
  H113     1.0000 0.36660  0.43510  0.42970  Biso   1.000  H
  H114     1.0000 0.63340  0.43510  0.57030  Biso   1.000  H
  H115     1.0000 0.86660  0.93510  0.42970  Biso   1.000  H
  H116     1.0000 0.13340  0.93510  0.57030  Biso   1.000  H
  O29      1.0000 0.37710  0.12560  0.62950  Biso   1.000  O
  O30      1.0000 0.62290  0.12560  0.37050  Biso   1.000  O
  O31      1.0000 0.87710  0.62560  0.62950  Biso   1.000  O
  O32      1.0000 0.12290  0.62560  0.37050  Biso   1.000  O
  H117     1.0000 0.35590  0.09590  0.66750  Biso   1.000  H
  H118     1.0000 0.64410  0.09590  0.33250  Biso   1.000  H
  H119     1.0000 0.85590  0.59590  0.66750  Biso   1.000  H
  H120     1.0000 0.14410  0.59590  0.33250  Biso   1.000  H
  H121     1.0000 0.39620  0.16030  0.66940  Biso   1.000  H
  H122     1.0000 0.60380  0.16030  0.33060  Biso   1.000  H
  H123     1.0000 0.89620  0.66030  0.66940  Biso   1.000  H
  H124     1.0000 0.10380  0.66030  0.33060  Biso   1.000  H
  O33      1.0000 0.13230  0.33382  0.47000  Biso   1.000  O
  O34      1.0000 0.86770  0.33382  0.53000  Biso   1.000  O
  O35      1.0000 0.63230  0.83382  0.47000  Biso   1.000  O
  O36      1.0000 0.36770  0.83382  0.53000  Biso   1.000  O
  H125     1.0000 0.19500  0.33550  0.44880  Biso   1.000  H
  H126     1.0000 0.80500  0.33550  0.55120  Biso   1.000  H
  H127     1.0000 0.69500  0.83550  0.44880  Biso   1.000  H
  H128     1.0000 0.30500  0.83550  0.55120  Biso   1.000  H
  H129     1.0000 0.09650  0.29750  0.44420  Biso   1.000  H
  H130     1.0000 0.90350  0.29750  0.55580  Biso   1.000  H
  H131     1.0000 0.59650  0.79750  0.44420  Biso   1.000  H
  H132     1.0000 0.40350  0.79750  0.55580  Biso   1.000  H
  O37      1.0000 0.00000  0.59330  0.50000  Biso   1.000  O
  O38      1.0000 0.50000  0.09330  0.50000  Biso   1.000  O
  O39      1.0000 0.98930  0.42670  0.33870  Biso   1.000  O
  O40      1.0000 0.01070  0.42670  0.66130  Biso   1.000  O
  O41      1.0000 0.48930  0.92670  0.33870  Biso   1.000  O
  O42      1.0000 0.51070  0.92670  0.66130  Biso   1.000  O
  H133     1.0000 0.94580  0.44400  0.37330  Biso   1.000  H
  H134     1.0000 0.05420  0.44400  0.62670  Biso   1.000  H
  H135     1.0000 0.44580  0.94400  0.37330  Biso   1.000  H
  H136     1.0000 0.55420  0.94400  0.62670  Biso   1.000  H
  H137     1.0000 0.03690  0.39980  0.38110  Biso   1.000  H
  H138     1.0000 0.96310  0.39980  0.61890  Biso   1.000  H
  H139     1.0000 0.53690  0.89980  0.38110  Biso   1.000  H
  H140     1.0000 0.46310  0.89980  0.61890  Biso   1.000  H
  O43      1.0000 0.14620  0.50200  0.27710  Biso   1.000  O
  O44      1.0000 0.85380  0.50200  0.72290  Biso   1.000  O
  O45      1.0000 0.64620  0.00200  0.27710  Biso   1.000  O
  O46      1.0000 0.35380  0.00200  0.72290  Biso   1.000  O
  H141     1.0000 0.09820  0.47670  0.29340  Biso   1.000  H
  H142     1.0000 0.90180  0.47670  0.70660  Biso   1.000  H
  H143     1.0000 0.59820  0.97670  0.29340  Biso   1.000  H
  H144     1.0000 0.40180  0.97670  0.70660  Biso   1.000  H
  C61      1.0000 0.10600  0.51330  0.17080  Biso   1.000  C
  C62      1.0000 0.89400  0.51330  0.82920  Biso   1.000  C
  C63      1.0000 0.60600  0.01330  0.17080  Biso   1.000  C
  C64      1.0000 0.39400  0.01330  0.82920  Biso   1.000  C
  H145     1.0000 0.14000  0.55550  0.15590  Biso   1.000  H
  H146     1.0000 0.86000  0.55550  0.84410  Biso   1.000  H
  H147     1.0000 0.64000  0.05550  0.15590  Biso   1.000  H
  H148     1.0000 0.36000  0.05550  0.84410  Biso   1.000  H
  H149     1.0000 0.01820  0.51770  0.14890  Biso   1.000  H
  H150     1.0000 0.98180  0.51770  0.85110  Biso   1.000  H
  H151     1.0000 0.51820  0.01770  0.14890  Biso   1.000  H
  H152     1.0000 0.48180  0.01770  0.85110  Biso   1.000  H
  C65      1.0000 0.13900  0.46170  0.11300  Biso   1.000  C
  C66      1.0000 0.86100  0.46170  0.88700  Biso   1.000  C
  C67      1.0000 0.63900  0.96170  0.11300  Biso   1.000  C
  C68      1.0000 0.36100  0.96170  0.88700  Biso   1.000  C
  H153     1.0000 0.10920  0.47230  0.04000  Biso   1.000  H
  H154     1.0000 0.89080  0.47230  0.96000  Biso   1.000  H
  H155     1.0000 0.60920  0.97230  0.04000  Biso   1.000  H
  H156     1.0000 0.39080  0.97230  0.96000  Biso   1.000  H
  H157     1.0000 0.22630  0.45770  0.13260  Biso   1.000  H
  H158     1.0000 0.77370  0.45770  0.86740  Biso   1.000  H
  H159     1.0000 0.72630  0.95770  0.13260  Biso   1.000  H
  H160     1.0000 0.27370  0.95770  0.86740  Biso   1.000  H
  H161     1.0000 0.10440  0.41990  0.12560  Biso   1.000  H
  H162     1.0000 0.89560  0.41990  0.87440  Biso   1.000  H
  H163     1.0000 0.60440  0.91990  0.12560  Biso   1.000  H
  H164     1.0000 0.39560  0.91990  0.87440  Biso   1.000  H
  H165     1.0000 0.09990  0.48180  0.30300  Biso   1.000  H
  H166     1.0000 0.90010  0.48180  0.69700  Biso   1.000  H
  H167     1.0000 0.59990  0.98180  0.30300  Biso   1.000  H
  H168     1.0000 0.40010  0.98180  0.69700  Biso   1.000  H
  C69      1.0000 0.11000  0.49050  0.16850  Biso   1.000  C
  C70      1.0000 0.89000  0.49050  0.83150  Biso   1.000  C
  C71      1.0000 0.61000  0.99050  0.16850  Biso   1.000  C
  C72      1.0000 0.39000  0.99050  0.83150  Biso   1.000  C
  H169     1.0000 0.07850  0.44530  0.15230  Biso   1.000  H
  H170     1.0000 0.92150  0.44530  0.84770  Biso   1.000  H
  H171     1.0000 0.57850  0.94530  0.15230  Biso   1.000  H
  H172     1.0000 0.42150  0.94530  0.84770  Biso   1.000  H
  H173     1.0000 0.17780  0.49700  0.14060  Biso   1.000  H
  H174     1.0000 0.82220  0.49700  0.85940  Biso   1.000  H
  H175     1.0000 0.67780  0.99700  0.14060  Biso   1.000  H
  H176     1.0000 0.32220  0.99700  0.85940  Biso   1.000  H
  C73      1.0000 0.01300  0.54150  0.12600  Biso   1.000  C
  C74      1.0000 0.98700  0.54150  0.87400  Biso   1.000  C
  C75      1.0000 0.51300  0.04150  0.12600  Biso   1.000  C
  C76      1.0000 0.48700  0.04150  0.87400  Biso   1.000  C
  H177     1.0000 0.98300  0.53710  0.05200  Biso   1.000  H
  H178     1.0000 0.01700  0.53710  0.94800  Biso   1.000  H
  H179     1.0000 0.48300  0.03710  0.05200  Biso   1.000  H
  H180     1.0000 0.51700  0.03710  0.94800  Biso   1.000  H
  H181     1.0000 0.94720  0.53440  0.15540  Biso   1.000  H
  H182     1.0000 0.05280  0.53440  0.84460  Biso   1.000  H
  H183     1.0000 0.44720  0.03440  0.15540  Biso   1.000  H
  H184     1.0000 0.55280  0.03440  0.84460  Biso   1.000  H
  H185     1.0000 0.04580  0.58570  0.14380  Biso   1.000  H
  H186     1.0000 0.95420  0.58570  0.85620  Biso   1.000  H
  H187     1.0000 0.54580  0.08570  0.14380  Biso   1.000  H
  H188     1.0000 0.45420  0.08570  0.85620  Biso   1.000  H
  H189     1.0000 0.93160  0.57790  0.46130  Biso   1.000  H
  H190     1.0000 0.06840  0.57790  0.53870  Biso   1.000  H
  H191     1.0000 0.43160  0.07790  0.46130  Biso   1.000  H
  H192     1.0000 0.56840  0.07790  0.53870  Biso   1.000  H
  H193     1.0000 0.04350  0.60010  0.46450  Biso   1.000  H
  H194     1.0000 0.95650  0.60010  0.53550  Biso   1.000  H
  H195     1.0000 0.54350  0.10010  0.46450  Biso   1.000  H
  H196     1.0000 0.45650  0.10010  0.53550  Biso   1.000  H
