data_image0
_cell_length_a       11.523
_cell_length_b       14.7026
_cell_length_c       12.0369
_cell_angle_alpha    90
_cell_angle_beta     93.025
_cell_angle_gamma    90

_symmetry_space_group_name_H-M    "P 1"
_symmetry_int_tables_number       1

loop_
  _symmetry_equiv_pos_as_xyz
  'x, y, z'

loop_
  _atom_site_label
  _atom_site_occupancy
  _atom_site_fract_x
  _atom_site_fract_y
  _atom_site_fract_z
  _atom_site_thermal_displace_type
  _atom_site_B_iso_or_equiv
  _atom_site_type_symbol
  Cu1      1.0000 0.17847  0.18979  0.96313  Biso   1.000  Cu
  Cu2      1.0000 0.67847  0.68979  0.96313  Biso   1.000  Cu
  Cu3      1.0000 0.82153  0.18979  0.53687  Biso   1.000  Cu
  Cu4      1.0000 0.32153  0.68979  0.53687  Biso   1.000  Cu
  Cu5      1.0000 0.82153  0.81021  0.03687  Biso   1.000  Cu
  Cu6      1.0000 0.32153  0.31021  0.03687  Biso   1.000  Cu
  Cu7      1.0000 0.17847  0.81021  0.46313  Biso   1.000  Cu
  Cu8      1.0000 0.67847  0.31021  0.46313  Biso   1.000  Cu
  I1       1.0000 0.13093  0.27827  0.13883  Biso   1.000  I
  I2       1.0000 0.63093  0.77827  0.13883  Biso   1.000  I
  I3       1.0000 0.86907  0.27827  0.36117  Biso   1.000  I
  I4       1.0000 0.36907  0.77827  0.36117  Biso   1.000  I
  I5       1.0000 0.86907  0.72173  0.86117  Biso   1.000  I
  I6       1.0000 0.36907  0.22173  0.86117  Biso   1.000  I
  I7       1.0000 0.13093  0.72173  0.63883  Biso   1.000  I
  I8       1.0000 0.63093  0.22173  0.63883  Biso   1.000  I
  N1       1.0000 0.05820  0.14206  0.83420  Biso   1.000  N
  N2       1.0000 0.55820  0.64206  0.83420  Biso   1.000  N
  N3       1.0000 0.94180  0.14206  0.66580  Biso   1.000  N
  N4       1.0000 0.44180  0.64206  0.66580  Biso   1.000  N
  N5       1.0000 0.94180  0.85794  0.16580  Biso   1.000  N
  N6       1.0000 0.44180  0.35794  0.16580  Biso   1.000  N
  N7       1.0000 0.05820  0.85794  0.33420  Biso   1.000  N
  N8       1.0000 0.55820  0.35794  0.33420  Biso   1.000  N
  N9       1.0000 0.17570  0.05070  0.99690  Biso   1.000  N
  N10      1.0000 0.67570  0.55070  0.99690  Biso   1.000  N
  N11      1.0000 0.82430  0.05070  0.50310  Biso   1.000  N
  N12      1.0000 0.32430  0.55070  0.50310  Biso   1.000  N
  N13      1.0000 0.82430  0.94930  0.00310  Biso   1.000  N
  N14      1.0000 0.32430  0.44930  0.00310  Biso   1.000  N
  N15      1.0000 0.17570  0.94930  0.49690  Biso   1.000  N
  N16      1.0000 0.67570  0.44930  0.49690  Biso   1.000  N
  N17      1.0000 0.00000  0.00280  0.75000  Biso   1.000  N
  N18      1.0000 0.50000  0.50280  0.75000  Biso   1.000  N
  N19      1.0000 0.00000  0.99720  0.25000  Biso   1.000  N
  N20      1.0000 0.50000  0.49720  0.25000  Biso   1.000  N
  N21      1.0000 0.02810  0.32880  0.65640  Biso   1.000  N
  N22      1.0000 0.52810  0.82880  0.65640  Biso   1.000  N
  N23      1.0000 0.97190  0.32880  0.84360  Biso   1.000  N
  N24      1.0000 0.47190  0.82880  0.84360  Biso   1.000  N
  N25      1.0000 0.97190  0.67120  0.34360  Biso   1.000  N
  N26      1.0000 0.47190  0.17120  0.34360  Biso   1.000  N
  N27      1.0000 0.02810  0.67120  0.15640  Biso   1.000  N
  N28      1.0000 0.52810  0.17120  0.15640  Biso   1.000  N
  H1       1.0000 0.04600  0.29700  0.59280  Biso   1.000  H
  H2       1.0000 0.54600  0.79700  0.59280  Biso   1.000  H
  H3       1.0000 0.95400  0.29700  0.90720  Biso   1.000  H
  H4       1.0000 0.45400  0.79700  0.90720  Biso   1.000  H
  H5       1.0000 0.95400  0.70300  0.40720  Biso   1.000  H
  H6       1.0000 0.45400  0.20300  0.40720  Biso   1.000  H
  H7       1.0000 0.04600  0.70300  0.09280  Biso   1.000  H
  H8       1.0000 0.54600  0.20300  0.09280  Biso   1.000  H
  C1       1.0000 0.05570  0.05090  0.82950  Biso   1.000  C
  C2       1.0000 0.55570  0.55090  0.82950  Biso   1.000  C
  C3       1.0000 0.94430  0.05090  0.67050  Biso   1.000  C
  C4       1.0000 0.44430  0.55090  0.67050  Biso   1.000  C
  C5       1.0000 0.94430  0.94910  0.17050  Biso   1.000  C
  C6       1.0000 0.44430  0.44910  0.17050  Biso   1.000  C
  C7       1.0000 0.05570  0.94910  0.32950  Biso   1.000  C
  C8       1.0000 0.55570  0.44910  0.32950  Biso   1.000  C
  C9       1.0000 0.11910  0.99940  0.91900  Biso   1.000  C
  C10      1.0000 0.61910  0.49940  0.91900  Biso   1.000  C
  C11      1.0000 0.88090  0.99940  0.58100  Biso   1.000  C
  C12      1.0000 0.38090  0.49940  0.58100  Biso   1.000  C
  C13      1.0000 0.88090  0.00060  0.08100  Biso   1.000  C
  C14      1.0000 0.38090  0.50060  0.08100  Biso   1.000  C
  C15      1.0000 0.11910  0.00060  0.41900  Biso   1.000  C
  C16      1.0000 0.61910  0.50060  0.41900  Biso   1.000  C
  C17      1.0000 0.11620  0.90590  0.92350  Biso   1.000  C
  C18      1.0000 0.61620  0.40590  0.92350  Biso   1.000  C
  C19      1.0000 0.88380  0.90590  0.57650  Biso   1.000  C
  C20      1.0000 0.38380  0.40590  0.57650  Biso   1.000  C
  C21      1.0000 0.88380  0.09410  0.07650  Biso   1.000  C
  C22      1.0000 0.38380  0.59410  0.07650  Biso   1.000  C
  C23      1.0000 0.11620  0.09410  0.42350  Biso   1.000  C
  C24      1.0000 0.61620  0.59410  0.42350  Biso   1.000  C
  H9       1.0000 0.07580  0.87240  0.86850  Biso   1.000  H
  H10      1.0000 0.57580  0.37240  0.86850  Biso   1.000  H
  H11      1.0000 0.92420  0.87240  0.63150  Biso   1.000  H
  H12      1.0000 0.42420  0.37240  0.63150  Biso   1.000  H
  H13      1.0000 0.92420  0.12760  0.13150  Biso   1.000  H
  H14      1.0000 0.42420  0.62760  0.13150  Biso   1.000  H
  H15      1.0000 0.07580  0.12760  0.36850  Biso   1.000  H
  H16      1.0000 0.57580  0.62760  0.36850  Biso   1.000  H
  C25      1.0000 0.23150  0.00740  0.08140  Biso   1.000  C
  C26      1.0000 0.73150  0.50740  0.08140  Biso   1.000  C
  C27      1.0000 0.76850  0.00740  0.41860  Biso   1.000  C
  C28      1.0000 0.26850  0.50740  0.41860  Biso   1.000  C
  C29      1.0000 0.76850  0.99260  0.91860  Biso   1.000  C
  C30      1.0000 0.26850  0.49260  0.91860  Biso   1.000  C
  C31      1.0000 0.23150  0.99260  0.58140  Biso   1.000  C
  C32      1.0000 0.73150  0.49260  0.58140  Biso   1.000  C
  H17      1.0000 0.27080  0.04190  0.13610  Biso   1.000  H
  H18      1.0000 0.77080  0.54190  0.13610  Biso   1.000  H
  H19      1.0000 0.72920  0.04190  0.36390  Biso   1.000  H
  H20      1.0000 0.22920  0.54190  0.36390  Biso   1.000  H
  H21      1.0000 0.72920  0.95810  0.86390  Biso   1.000  H
  H22      1.0000 0.22920  0.45810  0.86390  Biso   1.000  H
  H23      1.0000 0.27080  0.95810  0.63610  Biso   1.000  H
  H24      1.0000 0.77080  0.45810  0.63610  Biso   1.000  H
  C33      1.0000 0.23360  0.91450  0.09130  Biso   1.000  C
  C34      1.0000 0.73360  0.41450  0.09130  Biso   1.000  C
  C35      1.0000 0.76640  0.91450  0.40870  Biso   1.000  C
  C36      1.0000 0.26640  0.41450  0.40870  Biso   1.000  C
  C37      1.0000 0.76640  0.08550  0.90870  Biso   1.000  C
  C38      1.0000 0.26640  0.58550  0.90870  Biso   1.000  C
  C39      1.0000 0.23360  0.08550  0.59130  Biso   1.000  C
  C40      1.0000 0.73360  0.58550  0.59130  Biso   1.000  C
  H25      1.0000 0.27420  0.88680  0.15100  Biso   1.000  H
  H26      1.0000 0.77420  0.38680  0.15100  Biso   1.000  H
  H27      1.0000 0.72580  0.88680  0.34900  Biso   1.000  H
  H28      1.0000 0.22580  0.38680  0.34900  Biso   1.000  H
  H29      1.0000 0.72580  0.11320  0.84900  Biso   1.000  H
  H30      1.0000 0.22580  0.61320  0.84900  Biso   1.000  H
  H31      1.0000 0.27420  0.11320  0.65100  Biso   1.000  H
  H32      1.0000 0.77420  0.61320  0.65100  Biso   1.000  H
  C41      1.0000 0.17500  0.86320  0.01180  Biso   1.000  C
  C42      1.0000 0.67500  0.36320  0.01180  Biso   1.000  C
  C43      1.0000 0.82500  0.86320  0.48820  Biso   1.000  C
  C44      1.0000 0.32500  0.36320  0.48820  Biso   1.000  C
  C45      1.0000 0.82500  0.13680  0.98820  Biso   1.000  C
  C46      1.0000 0.32500  0.63680  0.98820  Biso   1.000  C
  C47      1.0000 0.17500  0.13680  0.51180  Biso   1.000  C
  C48      1.0000 0.67500  0.63680  0.51180  Biso   1.000  C
  H33      1.0000 0.17470  0.80010  0.01730  Biso   1.000  H
  H34      1.0000 0.67470  0.30010  0.01730  Biso   1.000  H
  H35      1.0000 0.82530  0.80010  0.48270  Biso   1.000  H
  H36      1.0000 0.32530  0.30010  0.48270  Biso   1.000  H
  H37      1.0000 0.82530  0.19990  0.98270  Biso   1.000  H
  H38      1.0000 0.32530  0.69990  0.98270  Biso   1.000  H
  H39      1.0000 0.17470  0.19990  0.51730  Biso   1.000  H
  H40      1.0000 0.67470  0.69990  0.51730  Biso   1.000  H
  C49      1.0000 0.00000  0.18500  0.75000  Biso   1.000  C
  C50      1.0000 0.50000  0.68500  0.75000  Biso   1.000  C
  C51      1.0000 0.00000  0.81500  0.25000  Biso   1.000  C
  C52      1.0000 0.50000  0.31500  0.25000  Biso   1.000  C
  C53      1.0000 0.00000  0.28590  0.75000  Biso   1.000  C
  C54      1.0000 0.50000  0.78590  0.75000  Biso   1.000  C
  C55      1.0000 0.00000  0.71410  0.25000  Biso   1.000  C
  C56      1.0000 0.50000  0.21410  0.25000  Biso   1.000  C
  C57      1.0000 0.02870  0.42240  0.66020  Biso   1.000  C
  C58      1.0000 0.52870  0.92240  0.66020  Biso   1.000  C
  C59      1.0000 0.97130  0.42240  0.83980  Biso   1.000  C
  C60      1.0000 0.47130  0.92240  0.83980  Biso   1.000  C
  C61      1.0000 0.97130  0.57760  0.33980  Biso   1.000  C
  C62      1.0000 0.47130  0.07760  0.33980  Biso   1.000  C
  C63      1.0000 0.02870  0.57760  0.16020  Biso   1.000  C
  C64      1.0000 0.52870  0.07760  0.16020  Biso   1.000  C
  H41      1.0000 0.05000  0.45450  0.59790  Biso   1.000  H
  H42      1.0000 0.55000  0.95450  0.59790  Biso   1.000  H
  H43      1.0000 0.95000  0.45450  0.90210  Biso   1.000  H
  H44      1.0000 0.45000  0.95450  0.90210  Biso   1.000  H
  H45      1.0000 0.95000  0.54550  0.40210  Biso   1.000  H
  H46      1.0000 0.45000  0.04550  0.40210  Biso   1.000  H
  H47      1.0000 0.05000  0.54550  0.09790  Biso   1.000  H
  H48      1.0000 0.55000  0.04550  0.09790  Biso   1.000  H
  C65      1.0000 0.00000  0.46890  0.75000  Biso   1.000  C
  C66      1.0000 0.50000  0.96890  0.75000  Biso   1.000  C
  C67      1.0000 0.00000  0.53110  0.25000  Biso   1.000  C
  C68      1.0000 0.50000  0.03110  0.25000  Biso   1.000  C
  H49      1.0000 0.00000  0.53210  0.75000  Biso   1.000  H
  H50      1.0000 0.50000  0.03210  0.75000  Biso   1.000  H
  H51      1.0000 0.00000  0.46790  0.25000  Biso   1.000  H
  H52      1.0000 0.50000  0.96790  0.25000  Biso   1.000  H
