data_image0
_cell_length_a       7.062
_cell_length_b       12.5728
_cell_length_c       13.6359
_cell_angle_alpha    68.499
_cell_angle_beta     80.147
_cell_angle_gamma    82.043

_symmetry_space_group_name_H-M    "P 1"
_symmetry_int_tables_number       1

loop_
  _symmetry_equiv_pos_as_xyz
  'x, y, z'

loop_
  _atom_site_label
  _atom_site_occupancy
  _atom_site_fract_x
  _atom_site_fract_y
  _atom_site_fract_z
  _atom_site_thermal_displace_type
  _atom_site_B_iso_or_equiv
  _atom_site_type_symbol
  Cu1      1.0000 0.02170  0.31721  0.34509  Biso   1.000  Cu
  Cu2      1.0000 0.97830  0.68279  0.65491  Biso   1.000  Cu
  Cu3      1.0000 0.38270  0.37206  0.23096  Biso   1.000  Cu
  Cu4      1.0000 0.61730  0.62794  0.76904  Biso   1.000  Cu
  Cu5      1.0000 0.46010  0.96668  0.11005  Biso   1.000  Cu
  Cu6      1.0000 0.53990  0.03332  0.88995  Biso   1.000  Cu
  I1       1.0000 0.72640  0.29832  0.26035  Biso   1.000  I
  I2       1.0000 0.27360  0.70168  0.73965  Biso   1.000  I
  I3       1.0000 0.15239  0.51489  0.29462  Biso   1.000  I
  I4       1.0000 0.84761  0.48511  0.70538  Biso   1.000  I
  I5       1.0000 0.27752  0.89823  0.99793  Biso   1.000  I
  I6       1.0000 0.72248  0.10177  0.00207  Biso   1.000  I
  N1       1.0000 0.49220  0.82570  0.24720  Biso   1.000  N
  N2       1.0000 0.50780  0.17430  0.75280  Biso   1.000  N
  N3       1.0000 0.33340  0.03630  0.23660  Biso   1.000  N
  N4       1.0000 0.66660  0.96370  0.76340  Biso   1.000  N
  N5       1.0000 0.28080  0.33630  0.11710  Biso   1.000  N
  N6       1.0000 0.71920  0.66370  0.88290  Biso   1.000  N
  N7       1.0000 0.21140  0.17100  0.32090  Biso   1.000  N
  N8       1.0000 0.78860  0.82900  0.67910  Biso   1.000  N
  N9       1.0000 0.06420  0.21480  0.49810  Biso   1.000  N
  N10      1.0000 0.93580  0.78520  0.50190  Biso   1.000  N
  N11      1.0000 0.31070  0.98060  0.42510  Biso   1.000  N
  N12      1.0000 0.68930  0.01940  0.57490  Biso   1.000  N
  C1       1.0000 0.24740  0.41970  0.02500  Biso   1.000  C
  C2       1.0000 0.75260  0.58030  0.97500  Biso   1.000  C
  H1       1.0000 0.28320  0.49260  0.01200  Biso   1.000  H
  H2       1.0000 0.71680  0.50740  0.98800  Biso   1.000  H
  C3       1.0000 0.16300  0.40250  0.94910  Biso   1.000  C
  C4       1.0000 0.83700  0.59750  0.05090  Biso   1.000  C
  H3       1.0000 0.13790  0.46370  0.88770  Biso   1.000  H
  H4       1.0000 0.86210  0.53630  0.11230  Biso   1.000  H
  C5       1.0000 0.11690  0.29710  0.96350  Biso   1.000  C
  C6       1.0000 0.88310  0.70290  0.03650  Biso   1.000  C
  H5       1.0000 0.06060  0.28430  0.91240  Biso   1.000  H
  H6       1.0000 0.93940  0.71570  0.08760  Biso   1.000  H
  C7       1.0000 0.15520  0.20750  0.05660  Biso   1.000  C
  C8       1.0000 0.84480  0.79250  0.94340  Biso   1.000  C
  H7       1.0000 0.12720  0.13340  0.06830  Biso   1.000  H
  H8       1.0000 0.87280  0.86660  0.93170  Biso   1.000  H
  C9       1.0000 0.23590  0.23120  0.13160  Biso   1.000  C
  C10      1.0000 0.76410  0.76880  0.86840  Biso   1.000  C
  C11      1.0000 0.26390  0.14050  0.23370  Biso   1.000  C
  C12      1.0000 0.73610  0.85950  0.76630  Biso   1.000  C
  C13      1.0000 0.36000  0.95840  0.33370  Biso   1.000  C
  C14      1.0000 0.64000  0.04160  0.66630  Biso   1.000  C
  C15      1.0000 0.44900  0.84540  0.34040  Biso   1.000  C
  C16      1.0000 0.55100  0.15460  0.65960  Biso   1.000  C
  C17      1.0000 0.56210  0.72130  0.25070  Biso   1.000  C
  C18      1.0000 0.43790  0.27870  0.74930  Biso   1.000  C
  H9       1.0000 0.58830  0.70660  0.18750  Biso   1.000  H
  H10      1.0000 0.41170  0.29340  0.81250  Biso   1.000  H
  C19      1.0000 0.59810  0.63280  0.34420  Biso   1.000  C
  C20      1.0000 0.40190  0.36720  0.65580  Biso   1.000  C
  H11      1.0000 0.64710  0.56060  0.34310  Biso   1.000  H
  H12      1.0000 0.35290  0.43940  0.65690  Biso   1.000  H
  C21      1.0000 0.56120  0.65230  0.43710  Biso   1.000  C
  C22      1.0000 0.43880  0.34770  0.56290  Biso   1.000  C
  H13      1.0000 0.58870  0.59460  0.50020  Biso   1.000  H
  H14      1.0000 0.41130  0.40540  0.49980  Biso   1.000  H
  C23      1.0000 0.48190  0.75940  0.43730  Biso   1.000  C
  C24      1.0000 0.51810  0.24060  0.56270  Biso   1.000  C
  H15      1.0000 0.45100  0.77370  0.50060  Biso   1.000  H
  H16      1.0000 0.54900  0.22630  0.49940  Biso   1.000  H
  C25      1.0000 0.23280  0.08590  0.41460  Biso   1.000  C
  C26      1.0000 0.76720  0.91410  0.58540  Biso   1.000  C
  C27      1.0000 0.15870  0.11030  0.51270  Biso   1.000  C
  C28      1.0000 0.84130  0.88970  0.48730  Biso   1.000  C
  C29      1.0000 0.18460  0.03280  0.61140  Biso   1.000  C
  C30      1.0000 0.81540  0.96720  0.38860  Biso   1.000  C
  H17      1.0000 0.24960  0.96130  0.61850  Biso   1.000  H
  H18      1.0000 0.75040  0.03870  0.38150  Biso   1.000  H
  C31      1.0000 0.11400  0.06070  0.70110  Biso   1.000  C
  C32      1.0000 0.88600  0.93930  0.29890  Biso   1.000  C
  H19      1.0000 0.12740  0.00830  0.76890  Biso   1.000  H
  H20      1.0000 0.87260  0.99170  0.23110  Biso   1.000  H
  C33      1.0000 0.02240  0.16970  0.68610  Biso   1.000  C
  C34      1.0000 0.97760  0.83030  0.31390  Biso   1.000  C
  H21      1.0000 0.97860  0.19310  0.74390  Biso   1.000  H
  H22      1.0000 0.02140  0.80690  0.25610  Biso   1.000  H
  C35      1.0000 0.99720  0.24250  0.58470  Biso   1.000  C
  C36      1.0000 0.00280  0.75750  0.41530  Biso   1.000  C
  H23      1.0000 0.93100  0.31400  0.57570  Biso   1.000  H
  H24      1.0000 0.06900  0.68600  0.42430  Biso   1.000  H
