data_image0
_cell_length_a       11.6906
_cell_length_b       13.2597
_cell_length_c       12.6351
_cell_angle_alpha    90
_cell_angle_beta     112.829
_cell_angle_gamma    90

_symmetry_space_group_name_H-M    "P 1"
_symmetry_int_tables_number       1

loop_
  _symmetry_equiv_pos_as_xyz
  'x, y, z'

loop_
  _atom_site_label
  _atom_site_occupancy
  _atom_site_fract_x
  _atom_site_fract_y
  _atom_site_fract_z
  _atom_site_thermal_displace_type
  _atom_site_B_iso_or_equiv
  _atom_site_type_symbol
  I1       1.0000 0.27076  0.25000  0.36316  Biso   1.000  I
  I2       1.0000 0.72924  0.75000  0.63684  Biso   1.000  I
  Cu1      1.0000 0.07870  0.35696  0.22826  Biso   1.000  Cu
  Cu2      1.0000 0.92130  0.85696  0.77174  Biso   1.000  Cu
  Cu3      1.0000 0.92130  0.64304  0.77174  Biso   1.000  Cu
  Cu4      1.0000 0.07870  0.14304  0.22826  Biso   1.000  Cu
  Cu5      1.0000 0.06118  0.25000  0.40244  Biso   1.000  Cu
  Cu6      1.0000 0.93882  0.75000  0.59756  Biso   1.000  Cu
  I3       1.0000 0.92079  0.41447  0.31791  Biso   1.000  I
  I4       1.0000 0.07921  0.91447  0.68209  Biso   1.000  I
  I5       1.0000 0.07921  0.58553  0.68209  Biso   1.000  I
  I6       1.0000 0.92079  0.08553  0.31791  Biso   1.000  I
  I7       1.0000 0.98359  0.25000  0.03136  Biso   1.000  I
  I8       1.0000 0.01641  0.75000  0.96864  Biso   1.000  I
  S1       1.0000 0.13029  0.51728  0.18070  Biso   1.000  S
  S2       1.0000 0.86971  0.01728  0.81930  Biso   1.000  S
  S3       1.0000 0.86971  0.48272  0.81930  Biso   1.000  S
  S4       1.0000 0.13029  0.98272  0.18070  Biso   1.000  S
  N1       1.0000 0.09600  0.25000  0.56780  Biso   1.000  N
  N2       1.0000 0.90400  0.75000  0.43220  Biso   1.000  N
  Cu7      1.0000 0.82369  0.36078  0.09941  Biso   1.000  Cu
  Cu8      1.0000 0.17631  0.86078  0.90059  Biso   1.000  Cu
  Cu9      1.0000 0.17631  0.63922  0.90059  Biso   1.000  Cu
  Cu10     1.0000 0.82369  0.13922  0.09941  Biso   1.000  Cu
  C1       1.0000 0.10070  0.25000  0.66020  Biso   1.000  C
  C2       1.0000 0.89930  0.75000  0.33980  Biso   1.000  C
  Ni1      1.0000 0.00000  0.00000  0.00000  Biso   1.000  Ni
  Ni2      1.0000 0.00000  0.50000  0.00000  Biso   1.000  Ni
  C3       1.0000 0.24750  0.00643  0.13153  Biso   1.000  C
  C4       1.0000 0.75250  0.50643  0.86847  Biso   1.000  C
  C5       1.0000 0.75250  0.99357  0.86847  Biso   1.000  C
  C6       1.0000 0.24750  0.49357  0.13153  Biso   1.000  C
  I9       1.0000 0.62782  0.25000  0.04357  Biso   1.000  I
  I10      1.0000 0.37218  0.75000  0.95643  Biso   1.000  I
  S5       1.0000 0.81895  0.52020  0.01647  Biso   1.000  S
  S6       1.0000 0.18105  0.02020  0.98353  Biso   1.000  S
  S7       1.0000 0.18105  0.47980  0.98353  Biso   1.000  S
  S8       1.0000 0.81895  0.97980  0.01647  Biso   1.000  S
  C7       1.0000 0.10780  0.25000  0.77860  Biso   1.000  C
  C8       1.0000 0.89220  0.75000  0.22140  Biso   1.000  C
  N3       1.0000 0.36544  0.01450  0.19678  Biso   1.000  N
  N4       1.0000 0.63456  0.51450  0.80322  Biso   1.000  N
  N5       1.0000 0.63456  0.98550  0.80322  Biso   1.000  N
  N6       1.0000 0.36544  0.48550  0.19678  Biso   1.000  N
  H1       1.0000 0.06090  0.18967  0.78500  Biso   1.000  H
  H2       1.0000 0.93910  0.68967  0.21500  Biso   1.000  H
  H3       1.0000 0.93910  0.81033  0.21500  Biso   1.000  H
  H4       1.0000 0.06090  0.31033  0.78500  Biso   1.000  H
  C9       1.0000 0.24150  0.25000  0.86540  Biso   1.000  C
  C10      1.0000 0.75850  0.75000  0.13460  Biso   1.000  C
  C11      1.0000 0.41500  0.99435  0.32142  Biso   1.000  C
  C12      1.0000 0.58500  0.49435  0.67858  Biso   1.000  C
  C13      1.0000 0.58500  0.00565  0.67858  Biso   1.000  C
  C14      1.0000 0.41500  0.50565  0.32142  Biso   1.000  C
  C15      1.0000 0.45980  0.04480  0.15200  Biso   1.000  C
  C16      1.0000 0.54020  0.54480  0.84800  Biso   1.000  C
  C17      1.0000 0.54020  0.95520  0.84800  Biso   1.000  C
  C18      1.0000 0.45980  0.45520  0.15200  Biso   1.000  C
  H5       1.0000 0.23900  0.25000  0.94190  Biso   1.000  H
  H6       1.0000 0.76100  0.75000  0.05810  Biso   1.000  H
  H7       1.0000 0.28540  0.31033  0.85650  Biso   1.000  H
  H8       1.0000 0.71460  0.81033  0.14350  Biso   1.000  H
  H9       1.0000 0.71460  0.68967  0.14350  Biso   1.000  H
  H10      1.0000 0.28540  0.18967  0.85650  Biso   1.000  H
  H11      1.0000 0.45273  0.05644  0.36424  Biso   1.000  H
  H12      1.0000 0.54727  0.55644  0.63576  Biso   1.000  H
  H13      1.0000 0.54727  0.94356  0.63576  Biso   1.000  H
  H14      1.0000 0.45273  0.44356  0.36424  Biso   1.000  H
  H15      1.0000 0.34689  0.97312  0.34463  Biso   1.000  H
  H16      1.0000 0.65311  0.47312  0.65537  Biso   1.000  H
  H17      1.0000 0.65311  0.02688  0.65537  Biso   1.000  H
  H18      1.0000 0.34689  0.52688  0.34463  Biso   1.000  H
  C19      1.0000 0.51220  0.91150  0.34940  Biso   1.000  C
  C20      1.0000 0.48780  0.41150  0.65060  Biso   1.000  C
  C21      1.0000 0.48780  0.08850  0.65060  Biso   1.000  C
  C22      1.0000 0.51220  0.58850  0.34940  Biso   1.000  C
  C23      1.0000 0.56270  0.96590  0.18270  Biso   1.000  C
  C24      1.0000 0.43730  0.46590  0.81730  Biso   1.000  C
  C25      1.0000 0.43730  0.03410  0.81730  Biso   1.000  C
  C26      1.0000 0.56270  0.53410  0.18270  Biso   1.000  C
  H19      1.0000 0.42023  0.05229  0.06757  Biso   1.000  H
  H20      1.0000 0.57977  0.55229  0.93243  Biso   1.000  H
  H21      1.0000 0.57977  0.94771  0.93243  Biso   1.000  H
  H22      1.0000 0.42023  0.44771  0.06757  Biso   1.000  H
  H23      1.0000 0.49561  0.11072  0.18519  Biso   1.000  H
  H24      1.0000 0.50439  0.61072  0.81481  Biso   1.000  H
  H25      1.0000 0.50439  0.88928  0.81481  Biso   1.000  H
  H26      1.0000 0.49561  0.38928  0.18519  Biso   1.000  H
  H27      1.0000 0.54767  0.89903  0.43323  Biso   1.000  H
  H28      1.0000 0.45233  0.39903  0.56677  Biso   1.000  H
  H29      1.0000 0.45233  0.10097  0.56677  Biso   1.000  H
  H30      1.0000 0.54767  0.60097  0.43323  Biso   1.000  H
  H31      1.0000 0.47272  0.84825  0.31058  Biso   1.000  H
  H32      1.0000 0.52728  0.34825  0.68942  Biso   1.000  H
  H33      1.0000 0.52728  0.15175  0.68942  Biso   1.000  H
  H34      1.0000 0.47272  0.65175  0.31058  Biso   1.000  H
  C27      1.0000 0.61530  0.94130  0.31030  Biso   1.000  C
  C28      1.0000 0.38470  0.44130  0.68970  Biso   1.000  C
  C29      1.0000 0.38470  0.05870  0.68970  Biso   1.000  C
  C30      1.0000 0.61530  0.55870  0.31030  Biso   1.000  C
  H35      1.0000 0.63016  0.99148  0.16091  Biso   1.000  H
  H36      1.0000 0.36984  0.49148  0.83909  Biso   1.000  H
  H37      1.0000 0.36984  0.00852  0.83909  Biso   1.000  H
  H38      1.0000 0.63016  0.50852  0.16091  Biso   1.000  H
  H39      1.0000 0.52946  0.90361  0.13825  Biso   1.000  H
  H40      1.0000 0.47054  0.40361  0.86175  Biso   1.000  H
  H41      1.0000 0.47054  0.09639  0.86175  Biso   1.000  H
  H42      1.0000 0.52946  0.59639  0.13825  Biso   1.000  H
  H43      1.0000 0.67555  0.88521  0.32566  Biso   1.000  H
  H44      1.0000 0.32445  0.38521  0.67434  Biso   1.000  H
  H45      1.0000 0.32445  0.11479  0.67434  Biso   1.000  H
  H46      1.0000 0.67555  0.61479  0.32566  Biso   1.000  H
  H47      1.0000 0.65985  0.00083  0.35442  Biso   1.000  H
  H48      1.0000 0.34015  0.50083  0.64558  Biso   1.000  H
  H49      1.0000 0.34015  0.99917  0.64558  Biso   1.000  H
  H50      1.0000 0.65985  0.49917  0.35442  Biso   1.000  H
  C31      1.0000 0.23950  0.75000  0.52090  Biso   1.000  C
  C32      1.0000 0.76050  0.25000  0.47910  Biso   1.000  C
  H51      1.0000 0.19961  0.75000  0.57802  Biso   1.000  H
  H52      1.0000 0.80039  0.25000  0.42198  Biso   1.000  H
  Cl1      1.0000 0.40231  0.75000  0.59606  Biso   1.000  Cl
  Cl2      1.0000 0.59769  0.25000  0.40394  Biso   1.000  Cl
  Cl3      1.0000 0.19291  0.64075  0.43626  Biso   1.000  Cl
  Cl4      1.0000 0.80709  0.14075  0.56374  Biso   1.000  Cl
  Cl5      1.0000 0.80709  0.35925  0.56374  Biso   1.000  Cl
  Cl6      1.0000 0.19291  0.85925  0.43626  Biso   1.000  Cl
