data_image0
_cell_length_a       9.3971
_cell_length_b       16.6555
_cell_length_c       10.3096
_cell_angle_alpha    90
_cell_angle_beta     102.763
_cell_angle_gamma    90

_symmetry_space_group_name_H-M    "P 1"
_symmetry_int_tables_number       1

loop_
  _symmetry_equiv_pos_as_xyz
  'x, y, z'

loop_
  _atom_site_label
  _atom_site_occupancy
  _atom_site_fract_x
  _atom_site_fract_y
  _atom_site_fract_z
  _atom_site_thermal_displace_type
  _atom_site_B_iso_or_equiv
  _atom_site_type_symbol
  Cu1      1.0000 0.54376  0.02959  0.88475  Biso   1.000  Cu
  Cu2      1.0000 0.45624  0.52959  0.61525  Biso   1.000  Cu
  Cu3      1.0000 0.45624  0.97041  0.11525  Biso   1.000  Cu
  Cu4      1.0000 0.54376  0.47041  0.38475  Biso   1.000  Cu
  I1       1.0000 0.68004  0.07643  0.12026  Biso   1.000  I
  I2       1.0000 0.31996  0.57643  0.37974  Biso   1.000  I
  I3       1.0000 0.31996  0.92357  0.87974  Biso   1.000  I
  I4       1.0000 0.68004  0.42357  0.62026  Biso   1.000  I
  S1       1.0000 0.69813  0.93818  0.81650  Biso   1.000  S
  S2       1.0000 0.30187  0.43818  0.68350  Biso   1.000  S
  S3       1.0000 0.30187  0.06182  0.18350  Biso   1.000  S
  S4       1.0000 0.69813  0.56182  0.31650  Biso   1.000  S
  S5       1.0000 0.57020  0.61238  0.78530  Biso   1.000  S
  S6       1.0000 0.42980  0.11238  0.71470  Biso   1.000  S
  S7       1.0000 0.42980  0.38762  0.21470  Biso   1.000  S
  S8       1.0000 0.57020  0.88762  0.28530  Biso   1.000  S
  O1       1.0000 0.82050  0.83950  0.58890  Biso   1.000  O
  O2       1.0000 0.17950  0.33950  0.91110  Biso   1.000  O
  O3       1.0000 0.17950  0.16050  0.41110  Biso   1.000  O
  O4       1.0000 0.82050  0.66050  0.08890  Biso   1.000  O
  N1       1.0000 0.63130  0.76640  0.62560  Biso   1.000  N
  N2       1.0000 0.36870  0.26640  0.87440  Biso   1.000  N
  N3       1.0000 0.36870  0.23360  0.37440  Biso   1.000  N
  N4       1.0000 0.63130  0.73360  0.12560  Biso   1.000  N
  C1       1.0000 0.88100  0.05210  0.60130  Biso   1.000  C
  C2       1.0000 0.11900  0.55210  0.89870  Biso   1.000  C
  C3       1.0000 0.11900  0.94790  0.39870  Biso   1.000  C
  C4       1.0000 0.88100  0.44790  0.10130  Biso   1.000  C
  H1       1.0000 0.87720  0.00280  0.55450  Biso   1.000  H
  H2       1.0000 0.12280  0.50280  0.94550  Biso   1.000  H
  H3       1.0000 0.12280  0.99720  0.44550  Biso   1.000  H
  H4       1.0000 0.87720  0.49720  0.05450  Biso   1.000  H
  C5       1.0000 0.88460  0.12430  0.53480  Biso   1.000  C
  C6       1.0000 0.11540  0.62430  0.96520  Biso   1.000  C
  C7       1.0000 0.11540  0.87570  0.46520  Biso   1.000  C
  C8       1.0000 0.88460  0.37570  0.03480  Biso   1.000  C
  H5       1.0000 0.88250  0.12350  0.44230  Biso   1.000  H
  H6       1.0000 0.11750  0.62350  0.05770  Biso   1.000  H
  H7       1.0000 0.11750  0.87650  0.55770  Biso   1.000  H
  H8       1.0000 0.88250  0.37650  0.94230  Biso   1.000  H
  C9       1.0000 0.89090  0.19590  0.59850  Biso   1.000  C
  C10      1.0000 0.10910  0.69590  0.90150  Biso   1.000  C
  C11      1.0000 0.10910  0.80410  0.40150  Biso   1.000  C
  C12      1.0000 0.89090  0.30410  0.09850  Biso   1.000  C
  H9       1.0000 0.89410  0.24470  0.55150  Biso   1.000  H
  H10      1.0000 0.10590  0.74470  0.94850  Biso   1.000  H
  H11      1.0000 0.10590  0.75530  0.44850  Biso   1.000  H
  H12      1.0000 0.89410  0.25530  0.05150  Biso   1.000  H
  C13      1.0000 0.89280  0.19640  0.73470  Biso   1.000  C
  C14      1.0000 0.10720  0.69640  0.76530  Biso   1.000  C
  C15      1.0000 0.10720  0.80360  0.26530  Biso   1.000  C
  C16      1.0000 0.89280  0.30360  0.23470  Biso   1.000  C
  H13      1.0000 0.89760  0.24590  0.78140  Biso   1.000  H
  H14      1.0000 0.10240  0.74590  0.71860  Biso   1.000  H
  H15      1.0000 0.10240  0.75410  0.21860  Biso   1.000  H
  H16      1.0000 0.89760  0.25410  0.28140  Biso   1.000  H
  C17      1.0000 0.88750  0.12500  0.80030  Biso   1.000  C
  C18      1.0000 0.11250  0.62500  0.69970  Biso   1.000  C
  C19      1.0000 0.11250  0.87500  0.19970  Biso   1.000  C
  C20      1.0000 0.88750  0.37500  0.30030  Biso   1.000  C
  H17      1.0000 0.88690  0.12610  0.89230  Biso   1.000  H
  H18      1.0000 0.11310  0.62610  0.60770  Biso   1.000  H
  H19      1.0000 0.11310  0.87390  0.10770  Biso   1.000  H
  H20      1.0000 0.88690  0.37390  0.39230  Biso   1.000  H
  C21      1.0000 0.88300  0.05210  0.73710  Biso   1.000  C
  C22      1.0000 0.11700  0.55210  0.76290  Biso   1.000  C
  C23      1.0000 0.11700  0.94790  0.26290  Biso   1.000  C
  C24      1.0000 0.88300  0.44790  0.23710  Biso   1.000  C
  C25      1.0000 0.87850  0.97440  0.81290  Biso   1.000  C
  C26      1.0000 0.12150  0.47440  0.68710  Biso   1.000  C
  C27      1.0000 0.12150  0.02560  0.18710  Biso   1.000  C
  C28      1.0000 0.87850  0.52560  0.31290  Biso   1.000  C
  H21      1.0000 0.93350  0.98220  0.90560  Biso   1.000  H
  H22      1.0000 0.06650  0.48220  0.59440  Biso   1.000  H
  H23      1.0000 0.06650  0.01780  0.09440  Biso   1.000  H
  H24      1.0000 0.93350  0.51780  0.40560  Biso   1.000  H
  H25      1.0000 0.92950  0.93230  0.77260  Biso   1.000  H
  H26      1.0000 0.07050  0.43230  0.72740  Biso   1.000  H
  H27      1.0000 0.07050  0.06770  0.22740  Biso   1.000  H
  H28      1.0000 0.92950  0.56770  0.27260  Biso   1.000  H
  C29      1.0000 0.62490  0.91320  0.64230  Biso   1.000  C
  C30      1.0000 0.37510  0.41320  0.85770  Biso   1.000  C
  C31      1.0000 0.37510  0.08680  0.35770  Biso   1.000  C
  C32      1.0000 0.62490  0.58680  0.14230  Biso   1.000  C
  H29      1.0000 0.51800  0.90540  0.62580  Biso   1.000  H
  H30      1.0000 0.48200  0.40540  0.87420  Biso   1.000  H
  H31      1.0000 0.48200  0.09460  0.37420  Biso   1.000  H
  H32      1.0000 0.51800  0.59460  0.12580  Biso   1.000  H
  H33      1.0000 0.64540  0.95700  0.58410  Biso   1.000  H
  H34      1.0000 0.35460  0.45700  0.91590  Biso   1.000  H
  H35      1.0000 0.35460  0.04300  0.41590  Biso   1.000  H
  H36      1.0000 0.64540  0.54300  0.08410  Biso   1.000  H
  C33      1.0000 0.69870  0.83640  0.61390  Biso   1.000  C
  C34      1.0000 0.30130  0.33640  0.88610  Biso   1.000  C
  C35      1.0000 0.30130  0.16360  0.38610  Biso   1.000  C
  C36      1.0000 0.69870  0.66360  0.11390  Biso   1.000  C
  C37      1.0000 0.48490  0.75320  0.64910  Biso   1.000  C
  C38      1.0000 0.51510  0.25320  0.85090  Biso   1.000  C
  C39      1.0000 0.51510  0.24680  0.35090  Biso   1.000  C
  C40      1.0000 0.48490  0.74680  0.14910  Biso   1.000  C
  H37      1.0000 0.42760  0.72050  0.57570  Biso   1.000  H
  H38      1.0000 0.57240  0.22050  0.92430  Biso   1.000  H
  H39      1.0000 0.57240  0.27950  0.42430  Biso   1.000  H
  H40      1.0000 0.42760  0.77950  0.07570  Biso   1.000  H
  H41      1.0000 0.43520  0.80570  0.64880  Biso   1.000  H
  H42      1.0000 0.56480  0.30570  0.85120  Biso   1.000  H
  H43      1.0000 0.56480  0.19430  0.35120  Biso   1.000  H
  H44      1.0000 0.43520  0.69430  0.14880  Biso   1.000  H
  C41      1.0000 0.48850  0.71100  0.78070  Biso   1.000  C
  C42      1.0000 0.51150  0.21100  0.71930  Biso   1.000  C
  C43      1.0000 0.51150  0.28900  0.21930  Biso   1.000  C
  C44      1.0000 0.48850  0.78900  0.28070  Biso   1.000  C
  H45      1.0000 0.38770  0.70580  0.79400  Biso   1.000  H
  H46      1.0000 0.61230  0.20580  0.70600  Biso   1.000  H
  H47      1.0000 0.61230  0.29420  0.20600  Biso   1.000  H
  H48      1.0000 0.38770  0.79420  0.29400  Biso   1.000  H
  H49      1.0000 0.54490  0.74390  0.85440  Biso   1.000  H
  H50      1.0000 0.45510  0.24390  0.64560  Biso   1.000  H
  H51      1.0000 0.45510  0.25610  0.14560  Biso   1.000  H
  H52      1.0000 0.54490  0.75610  0.35440  Biso   1.000  H
  C45      1.0000 0.74030  0.64340  0.74350  Biso   1.000  C
  C46      1.0000 0.25970  0.14340  0.75650  Biso   1.000  C
  C47      1.0000 0.25970  0.35660  0.25650  Biso   1.000  C
  C48      1.0000 0.74030  0.85660  0.24350  Biso   1.000  C
  H53      1.0000 0.79650  0.67720  0.81610  Biso   1.000  H
  H54      1.0000 0.20350  0.17720  0.68390  Biso   1.000  H
  H55      1.0000 0.20350  0.32280  0.18390  Biso   1.000  H
  H56      1.0000 0.79650  0.82280  0.31610  Biso   1.000  H
  H57      1.0000 0.79960  0.59540  0.73500  Biso   1.000  H
  H58      1.0000 0.20040  0.09540  0.76500  Biso   1.000  H
  H59      1.0000 0.20040  0.40460  0.26500  Biso   1.000  H
  H60      1.0000 0.79960  0.90460  0.23500  Biso   1.000  H
  C49      1.0000 0.71130  0.69070  0.61310  Biso   1.000  C
  C50      1.0000 0.28870  0.19070  0.88690  Biso   1.000  C
  C51      1.0000 0.28870  0.30930  0.38690  Biso   1.000  C
  C52      1.0000 0.71130  0.80930  0.11310  Biso   1.000  C
  H61      1.0000 0.80530  0.70360  0.58940  Biso   1.000  H
  H62      1.0000 0.19470  0.20360  0.91060  Biso   1.000  H
  H63      1.0000 0.19470  0.29640  0.41060  Biso   1.000  H
  H64      1.0000 0.80530  0.79640  0.08940  Biso   1.000  H
  H65      1.0000 0.65320  0.65750  0.54100  Biso   1.000  H
  H66      1.0000 0.34680  0.15750  0.95900  Biso   1.000  H
  H67      1.0000 0.34680  0.34250  0.45900  Biso   1.000  H
  H68      1.0000 0.65320  0.84250  0.04100  Biso   1.000  H
