data_image0
_cell_length_a       10.9426
_cell_length_b       12.2684
_cell_length_c       16.2998
_cell_angle_alpha    82.797
_cell_angle_beta     75.607
_cell_angle_gamma    76.53

_symmetry_space_group_name_H-M    "P 1"
_symmetry_int_tables_number       1

loop_
  _symmetry_equiv_pos_as_xyz
  'x, y, z'

loop_
  _atom_site_label
  _atom_site_occupancy
  _atom_site_fract_x
  _atom_site_fract_y
  _atom_site_fract_z
  _atom_site_thermal_displace_type
  _atom_site_B_iso_or_equiv
  _atom_site_type_symbol
  Cu1      1.0000 0.43371  0.78475  0.26566  Biso   1.000  Cu
  Cu2      1.0000 0.56629  0.21525  0.73434  Biso   1.000  Cu
  Cu3      1.0000 0.16577  0.86584  0.28587  Biso   1.000  Cu
  Cu4      1.0000 0.83423  0.13416  0.71413  Biso   1.000  Cu
  Cu5      1.0000 0.32065  0.84154  0.13167  Biso   1.000  Cu
  Cu6      1.0000 0.67935  0.15846  0.86833  Biso   1.000  Cu
  Cu7      1.0000 0.28053  0.65092  0.24449  Biso   1.000  Cu
  Cu8      1.0000 0.71947  0.34908  0.75551  Biso   1.000  Cu
  I1       1.0000 0.33665  0.99844  0.22245  Biso   1.000  I
  I2       1.0000 0.66335  0.00156  0.77755  Biso   1.000  I
  I3       1.0000 0.25944  0.71108  0.39854  Biso   1.000  I
  I4       1.0000 0.74056  0.28892  0.60146  Biso   1.000  I
  I5       1.0000 0.51345  0.64977  0.13946  Biso   1.000  I
  I6       1.0000 0.48655  0.35023  0.86054  Biso   1.000  I
  I7       1.0000 0.10036  0.76867  0.16893  Biso   1.000  I
  I8       1.0000 0.89964  0.23133  0.83107  Biso   1.000  I
  S1       1.0000 0.60230  0.79540  0.32450  Biso   1.000  S
  S2       1.0000 0.39770  0.20460  0.67550  Biso   1.000  S
  S3       1.0000 0.98140  0.98050  0.35900  Biso   1.000  S
  S4       1.0000 0.01860  0.01950  0.64100  Biso   1.000  S
  S5       1.0000 0.38570  0.88470  0.98790  Biso   1.000  S
  S6       1.0000 0.61430  0.11530  0.01210  Biso   1.000  S
  S7       1.0000 0.73990  0.53390  0.74380  Biso   1.000  S
  S8       1.0000 0.26010  0.46610  0.25620  Biso   1.000  S
  O1       1.0000 0.59030  0.83860  0.53710  Biso   1.000  O
  O2       1.0000 0.40970  0.16140  0.46290  Biso   1.000  O
  O3       1.0000 0.32030  0.80310  0.80320  Biso   1.000  O
  O4       1.0000 0.67970  0.19690  0.19680  Biso   1.000  O
  N1       1.0000 0.69690  0.95310  0.44470  Biso   1.000  N
  N2       1.0000 0.30310  0.04690  0.55530  Biso   1.000  N
  N3       1.0000 0.52870  0.74380  0.81110  Biso   1.000  N
  N4       1.0000 0.47130  0.25620  0.18890  Biso   1.000  N
  C1       1.0000 0.82510  0.57170  0.28400  Biso   1.000  C
  C2       1.0000 0.17490  0.42830  0.71600  Biso   1.000  C
  H1       1.0000 0.87850  0.58630  0.32070  Biso   1.000  H
  H2       1.0000 0.12150  0.41370  0.67930  Biso   1.000  H
  H3       1.0000 0.81700  0.63560  0.24070  Biso   1.000  H
  H4       1.0000 0.18300  0.36440  0.75930  Biso   1.000  H
  C3       1.0000 0.89100  0.46500  0.24060  Biso   1.000  C
  C4       1.0000 0.10900  0.53500  0.75940  Biso   1.000  C
  H5       1.0000 0.84260  0.45660  0.19850  Biso   1.000  H
  H6       1.0000 0.15740  0.54340  0.80150  Biso   1.000  H
  H7       1.0000 0.97880  0.47190  0.20920  Biso   1.000  H
  H8       1.0000 0.02120  0.52810  0.79080  Biso   1.000  H
  C5       1.0000 0.90000  0.36370  0.29810  Biso   1.000  C
  C6       1.0000 0.10000  0.63630  0.70190  Biso   1.000  C
  H9       1.0000 0.95510  0.36780  0.33690  Biso   1.000  H
  H10      1.0000 0.04490  0.63220  0.66310  Biso   1.000  H
  H11      1.0000 0.94050  0.29720  0.26490  Biso   1.000  H
  H12      1.0000 0.05950  0.70280  0.73510  Biso   1.000  H
  C7       1.0000 0.76700  0.35120  0.34980  Biso   1.000  C
  C8       1.0000 0.23300  0.64880  0.65020  Biso   1.000  C
  H13      1.0000 0.77530  0.28600  0.39190  Biso   1.000  H
  H14      1.0000 0.22470  0.71400  0.60810  Biso   1.000  H
  H15      1.0000 0.71500  0.33720  0.31170  Biso   1.000  H
  H16      1.0000 0.28500  0.66280  0.68830  Biso   1.000  H
  C9       1.0000 0.69650  0.45880  0.39620  Biso   1.000  C
  C10      1.0000 0.30350  0.54120  0.60380  Biso   1.000  C
  H17      1.0000 0.60690  0.45250  0.42410  Biso   1.000  H
  H18      1.0000 0.39310  0.54750  0.57590  Biso   1.000  H
  H19      1.0000 0.74060  0.46540  0.44100  Biso   1.000  H
  H20      1.0000 0.25940  0.53460  0.55900  Biso   1.000  H
  C11      1.0000 0.69380  0.56350  0.33680  Biso   1.000  C
  C12      1.0000 0.30620  0.43650  0.66320  Biso   1.000  C
  H21      1.0000 0.63720  0.56130  0.29760  Biso   1.000  H
  H22      1.0000 0.36280  0.43870  0.70240  Biso   1.000  H
  C13      1.0000 0.63050  0.66650  0.39210  Biso   1.000  C
  C14      1.0000 0.36950  0.33350  0.60790  Biso   1.000  C
  H23      1.0000 0.68800  0.67330  0.42860  Biso   1.000  H
  H24      1.0000 0.31200  0.32670  0.57140  Biso   1.000  H
  H25      1.0000 0.54750  0.65450  0.42940  Biso   1.000  H
  H26      1.0000 0.45250  0.34550  0.57060  Biso   1.000  H
  C15      1.0000 0.51900  0.89050  0.40900  Biso   1.000  C
  C16      1.0000 0.48100  0.10950  0.59100  Biso   1.000  C
  H27      1.0000 0.49270  0.96730  0.38330  Biso   1.000  H
  H28      1.0000 0.50730  0.03270  0.61670  Biso   1.000  H
  H29      1.0000 0.44010  0.86540  0.44180  Biso   1.000  H
  H30      1.0000 0.55990  0.13460  0.55820  Biso   1.000  H
  C17      1.0000 0.60480  0.89280  0.46780  Biso   1.000  C
  C18      1.0000 0.39520  0.10720  0.53220  Biso   1.000  C
  C19      1.0000 0.78440  0.95190  0.49920  Biso   1.000  C
  C20      1.0000 0.21560  0.04810  0.50080  Biso   1.000  C
  H31      1.0000 0.75730  0.90900  0.55380  Biso   1.000  H
  H32      1.0000 0.24270  0.09100  0.44620  Biso   1.000  H
  H33      1.0000 0.78100  0.02970  0.51140  Biso   1.000  H
  H34      1.0000 0.21900  0.97030  0.48860  Biso   1.000  H
  C21      1.0000 0.92560  0.89660  0.45460  Biso   1.000  C
  C22      1.0000 0.07440  0.10340  0.54540  Biso   1.000  C
  H35      1.0000 0.92820  0.82000  0.44010  Biso   1.000  H
  H36      1.0000 0.07180  0.18000  0.55990  Biso   1.000  H
  H37      1.0000 0.98330  0.89020  0.49390  Biso   1.000  H
  H38      1.0000 0.01670  0.10980  0.50610  Biso   1.000  H
  C23      1.0000 0.85160  0.98540  0.30820  Biso   1.000  C
  C24      1.0000 0.14840  0.01460  0.69180  Biso   1.000  C
  H39      1.0000 0.86140  0.03690  0.25620  Biso   1.000  H
  H40      1.0000 0.13860  0.96310  0.74380  Biso   1.000  H
  H41      1.0000 0.85700  0.90960  0.29090  Biso   1.000  H
  H42      1.0000 0.14300  0.09040  0.70910  Biso   1.000  H
  C25      1.0000 0.71840  0.02520  0.36640  Biso   1.000  C
  C26      1.0000 0.28160  0.97480  0.63360  Biso   1.000  C
  H43      1.0000 0.71090  0.10290  0.38080  Biso   1.000  H
  H44      1.0000 0.28910  0.89710  0.61920  Biso   1.000  H
  H45      1.0000 0.65070  0.02640  0.33560  Biso   1.000  H
  H46      1.0000 0.34930  0.97360  0.66440  Biso   1.000  H
  C27      1.0000 0.10230  0.08950  0.05290  Biso   1.000  C
  C28      1.0000 0.89770  0.91050  0.94710  Biso   1.000  C
  H47      1.0000 0.12100  0.02500  0.09410  Biso   1.000  H
  H48      1.0000 0.87900  0.97500  0.90590  Biso   1.000  H
  H49      1.0000 0.03970  0.07390  0.02350  Biso   1.000  H
  H50      1.0000 0.96030  0.92610  0.97650  Biso   1.000  H
  C29      1.0000 0.04130  0.19680  0.10100  Biso   1.000  C
  C30      1.0000 0.95870  0.80320  0.89900  Biso   1.000  C
  H51      1.0000 0.95800  0.18830  0.13950  Biso   1.000  H
  H52      1.0000 0.04200  0.81170  0.86050  Biso   1.000  H
  H53      1.0000 0.09910  0.20760  0.13600  Biso   1.000  H
  H54      1.0000 0.90090  0.79240  0.86400  Biso   1.000  H
  C31      1.0000 0.02020  0.29580  0.04100  Biso   1.000  C
  C32      1.0000 0.97980  0.70420  0.95900  Biso   1.000  C
  H55      1.0000 0.98860  0.36400  0.07320  Biso   1.000  H
  H56      1.0000 0.01140  0.63600  0.92680  Biso   1.000  H
  H57      1.0000 0.95210  0.28960  0.01270  Biso   1.000  H
  H58      1.0000 0.04790  0.71040  0.98730  Biso   1.000  H
  C33      1.0000 0.14110  0.30950  0.97340  Biso   1.000  C
  C34      1.0000 0.85890  0.69050  0.02660  Biso   1.000  C
  H59      1.0000 0.11790  0.37080  0.93080  Biso   1.000  H
  H60      1.0000 0.88210  0.62920  0.06920  Biso   1.000  H
  H61      1.0000 0.20330  0.33080  0.00020  Biso   1.000  H
  H62      1.0000 0.79670  0.66920  0.99980  Biso   1.000  H
  C35      1.0000 0.20460  0.20180  0.92910  Biso   1.000  C
  C36      1.0000 0.79540  0.79820  0.07090  Biso   1.000  C
  H63      1.0000 0.14980  0.19000  0.89240  Biso   1.000  H
  H64      1.0000 0.85020  0.81000  0.10760  Biso   1.000  H
  H65      1.0000 0.28880  0.21080  0.89200  Biso   1.000  H
  H66      1.0000 0.71120  0.78920  0.10800  Biso   1.000  H
  C37      1.0000 0.22580  0.10060  0.98820  Biso   1.000  C
  C38      1.0000 0.77420  0.89940  0.01180  Biso   1.000  C
  H67      1.0000 0.29000  0.10970  0.01980  Biso   1.000  H
  H68      1.0000 0.71000  0.89030  0.98020  Biso   1.000  H
  C39      1.0000 0.28440  0.99850  0.93690  Biso   1.000  C
  C40      1.0000 0.71560  0.00150  0.06310  Biso   1.000  C
  H69      1.0000 0.33670  0.02240  0.88170  Biso   1.000  H
  H70      1.0000 0.66330  0.97760  0.11830  Biso   1.000  H
  H71      1.0000 0.21370  0.96950  0.92520  Biso   1.000  H
  H72      1.0000 0.78630  0.03050  0.07480  Biso   1.000  H
  C41      1.0000 0.36180  0.76620  0.94280  Biso   1.000  C
  C42      1.0000 0.63820  0.23380  0.05720  Biso   1.000  C
  H73      1.0000 0.41320  0.69640  0.96510  Biso   1.000  H
  H74      1.0000 0.58680  0.30360  0.03490  Biso   1.000  H
  H75      1.0000 0.26970  0.76170  0.96160  Biso   1.000  H
  H76      1.0000 0.73030  0.23830  0.03840  Biso   1.000  H
  C43      1.0000 0.39920  0.77220  0.84760  Biso   1.000  C
  C44      1.0000 0.60080  0.22780  0.15240  Biso   1.000  C
  C45      1.0000 0.57260  0.73300  0.71960  Biso   1.000  C
  C46      1.0000 0.42740  0.26700  0.28040  Biso   1.000  C
  H77      1.0000 0.64860  0.76760  0.69750  Biso   1.000  H
  H78      1.0000 0.35140  0.23240  0.30250  Biso   1.000  H
  H79      1.0000 0.50330  0.77420  0.69120  Biso   1.000  H
  H80      1.0000 0.49670  0.22580  0.30880  Biso   1.000  H
  C47      1.0000 0.60810  0.61150  0.69820  Biso   1.000  C
  C48      1.0000 0.39190  0.38850  0.30180  Biso   1.000  C
  H81      1.0000 0.63310  0.60790  0.63570  Biso   1.000  H
  H82      1.0000 0.36690  0.39210  0.36430  Biso   1.000  H
  H83      1.0000 0.53220  0.57670  0.72010  Biso   1.000  H
  H84      1.0000 0.46780  0.42330  0.27990  Biso   1.000  H
  C49      1.0000 0.68230  0.57630  0.85130  Biso   1.000  C
  C50      1.0000 0.31770  0.42370  0.14870  Biso   1.000  C
  H85      1.0000 0.61270  0.53700  0.88150  Biso   1.000  H
  H86      1.0000 0.38730  0.46300  0.11850  Biso   1.000  H
  H87      1.0000 0.75360  0.55360  0.88120  Biso   1.000  H
  H88      1.0000 0.24640  0.44640  0.11880  Biso   1.000  H
  C51      1.0000 0.63130  0.70240  0.85380  Biso   1.000  C
  C52      1.0000 0.36870  0.29760  0.14620  Biso   1.000  C
  H89      1.0000 0.60050  0.72130  0.91380  Biso   1.000  H
  H90      1.0000 0.39950  0.27870  0.08620  Biso   1.000  H
  H91      1.0000 0.70300  0.74110  0.82740  Biso   1.000  H
  H92      1.0000 0.29700  0.25890  0.17260  Biso   1.000  H
  C53      1.0000 0.95100  0.55140  0.51100  Biso   1.000  C
  C54      1.0000 0.04900  0.44860  0.48900  Biso   1.000  C
  N5       1.0000 0.87600  0.62700  0.52500  Biso   1.000  N
  N6       1.0000 0.12400  0.37300  0.47500  Biso   1.000  N
