data_image0
_cell_length_a       13.9216
_cell_length_b       13.9216
_cell_length_c       8.978
_cell_angle_alpha    90
_cell_angle_beta     90
_cell_angle_gamma    90

_symmetry_space_group_name_H-M    "P 1"
_symmetry_int_tables_number       1

loop_
  _symmetry_equiv_pos_as_xyz
  'x, y, z'

loop_
  _atom_site_label
  _atom_site_occupancy
  _atom_site_fract_x
  _atom_site_fract_y
  _atom_site_fract_z
  _atom_site_thermal_displace_type
  _atom_site_B_iso_or_equiv
  _atom_site_type_symbol
  I1       1.0000 0.50000  0.00000  0.99753  Biso   1.000  I
  I2       1.0000 0.50000  0.00000  0.50247  Biso   1.000  I
  I3       1.0000 0.00000  0.50000  0.49753  Biso   1.000  I
  I4       1.0000 0.00000  0.50000  0.00247  Biso   1.000  I
  Cu1      1.0000 0.40058  0.00000  0.25000  Biso   1.000  Cu
  Cu2      1.0000 0.59942  0.00000  0.25000  Biso   1.000  Cu
  Cu3      1.0000 0.00000  0.59942  0.75000  Biso   1.000  Cu
  Cu4      1.0000 0.00000  0.40058  0.75000  Biso   1.000  Cu
  N1       1.0000 0.30850  0.88360  0.27400  Biso   1.000  N
  N2       1.0000 0.30850  0.11640  0.22600  Biso   1.000  N
  N3       1.0000 0.69150  0.11640  0.27400  Biso   1.000  N
  N4       1.0000 0.69150  0.88360  0.22600  Biso   1.000  N
  N5       1.0000 0.11640  0.69150  0.77400  Biso   1.000  N
  N6       1.0000 0.11640  0.30850  0.72600  Biso   1.000  N
  N7       1.0000 0.88360  0.69150  0.72600  Biso   1.000  N
  N8       1.0000 0.88360  0.30850  0.77400  Biso   1.000  N
  N9       1.0000 0.18210  0.80610  0.34240  Biso   1.000  N
  N10      1.0000 0.18210  0.19390  0.15760  Biso   1.000  N
  N11      1.0000 0.81790  0.19390  0.34240  Biso   1.000  N
  N12      1.0000 0.81790  0.80610  0.15760  Biso   1.000  N
  N13      1.0000 0.19390  0.81790  0.84240  Biso   1.000  N
  N14      1.0000 0.19390  0.18210  0.65760  Biso   1.000  N
  N15      1.0000 0.80610  0.81790  0.65760  Biso   1.000  N
  N16      1.0000 0.80610  0.18210  0.84240  Biso   1.000  N
  C1       1.0000 0.31630  0.79150  0.22120  Biso   1.000  C
  C2       1.0000 0.31630  0.20850  0.27880  Biso   1.000  C
  C3       1.0000 0.68370  0.20850  0.22120  Biso   1.000  C
  C4       1.0000 0.68370  0.79150  0.27880  Biso   1.000  C
  C5       1.0000 0.20850  0.68370  0.72120  Biso   1.000  C
  C6       1.0000 0.20850  0.31630  0.77880  Biso   1.000  C
  C7       1.0000 0.79150  0.68370  0.77880  Biso   1.000  C
  C8       1.0000 0.79150  0.31630  0.72120  Biso   1.000  C
  C9       1.0000 0.38840  0.74850  0.13610  Biso   1.000  C
  C10      1.0000 0.38840  0.25150  0.36390  Biso   1.000  C
  C11      1.0000 0.61160  0.25150  0.13610  Biso   1.000  C
  C12      1.0000 0.61160  0.74850  0.36390  Biso   1.000  C
  C13      1.0000 0.25150  0.61160  0.63610  Biso   1.000  C
  C14      1.0000 0.25150  0.38840  0.86390  Biso   1.000  C
  C15      1.0000 0.74850  0.61160  0.86390  Biso   1.000  C
  C16      1.0000 0.74850  0.38840  0.63610  Biso   1.000  C
  C17      1.0000 0.37330  0.65330  0.09720  Biso   1.000  C
  C18      1.0000 0.37330  0.34670  0.40280  Biso   1.000  C
  C19      1.0000 0.62670  0.34670  0.09720  Biso   1.000  C
  C20      1.0000 0.62670  0.65330  0.40280  Biso   1.000  C
  C21      1.0000 0.34670  0.62670  0.59720  Biso   1.000  C
  C22      1.0000 0.34670  0.37330  0.90280  Biso   1.000  C
  C23      1.0000 0.65330  0.62670  0.90280  Biso   1.000  C
  C24      1.0000 0.65330  0.37330  0.59720  Biso   1.000  C
  C25      1.0000 0.28750  0.60380  0.13800  Biso   1.000  C
  C26      1.0000 0.28750  0.39620  0.36200  Biso   1.000  C
  C27      1.0000 0.71250  0.39620  0.13800  Biso   1.000  C
  C28      1.0000 0.71250  0.60380  0.36200  Biso   1.000  C
  C29      1.0000 0.39620  0.71250  0.63800  Biso   1.000  C
  C30      1.0000 0.39620  0.28750  0.86200  Biso   1.000  C
  C31      1.0000 0.60380  0.71250  0.86200  Biso   1.000  C
  C32      1.0000 0.60380  0.28750  0.63800  Biso   1.000  C
  C33      1.0000 0.21810  0.64580  0.22380  Biso   1.000  C
  C34      1.0000 0.21810  0.35420  0.27620  Biso   1.000  C
  C35      1.0000 0.78190  0.35420  0.22380  Biso   1.000  C
  C36      1.0000 0.78190  0.64580  0.27620  Biso   1.000  C
  C37      1.0000 0.35420  0.78190  0.72380  Biso   1.000  C
  C38      1.0000 0.35420  0.21810  0.77620  Biso   1.000  C
  C39      1.0000 0.64580  0.78190  0.77620  Biso   1.000  C
  C40      1.0000 0.64580  0.21810  0.72380  Biso   1.000  C
  C41      1.0000 0.23380  0.74090  0.26470  Biso   1.000  C
  C42      1.0000 0.23380  0.25910  0.23530  Biso   1.000  C
  C43      1.0000 0.76620  0.25910  0.26470  Biso   1.000  C
  C44      1.0000 0.76620  0.74090  0.23530  Biso   1.000  C
  C45      1.0000 0.25910  0.76620  0.76470  Biso   1.000  C
  C46      1.0000 0.25910  0.23380  0.73530  Biso   1.000  C
  C47      1.0000 0.74090  0.76620  0.73530  Biso   1.000  C
  C48      1.0000 0.74090  0.23380  0.76470  Biso   1.000  C
  C49      1.0000 0.22770  0.89100  0.34670  Biso   1.000  C
  C50      1.0000 0.22770  0.10900  0.15330  Biso   1.000  C
  C51      1.0000 0.77230  0.10900  0.34670  Biso   1.000  C
  C52      1.0000 0.77230  0.89100  0.15330  Biso   1.000  C
  C53      1.0000 0.10900  0.77230  0.84670  Biso   1.000  C
  C54      1.0000 0.10900  0.22770  0.65330  Biso   1.000  C
  C55      1.0000 0.89100  0.77230  0.65330  Biso   1.000  C
  C56      1.0000 0.89100  0.22770  0.84670  Biso   1.000  C
  C57      1.0000 0.08800  0.79490  0.41580  Biso   1.000  C
  C58      1.0000 0.08800  0.20510  0.08420  Biso   1.000  C
  C59      1.0000 0.91200  0.20510  0.41580  Biso   1.000  C
  C60      1.0000 0.91200  0.79490  0.08420  Biso   1.000  C
  C61      1.0000 0.20510  0.91200  0.91580  Biso   1.000  C
  C62      1.0000 0.20510  0.08800  0.58420  Biso   1.000  C
  C63      1.0000 0.79490  0.91200  0.58420  Biso   1.000  C
  C64      1.0000 0.79490  0.08800  0.91580  Biso   1.000  C
  C65      1.0000 0.00860  0.76180  0.30980  Biso   1.000  C
  C66      1.0000 0.00860  0.23820  0.19020  Biso   1.000  C
  C67      1.0000 0.99140  0.23820  0.30980  Biso   1.000  C
  C68      1.0000 0.99140  0.76180  0.19020  Biso   1.000  C
  C69      1.0000 0.23820  0.99140  0.80980  Biso   1.000  C
  C70      1.0000 0.23820  0.00860  0.69020  Biso   1.000  C
  C71      1.0000 0.76180  0.99140  0.69020  Biso   1.000  C
  C72      1.0000 0.76180  0.00860  0.80980  Biso   1.000  C
  C73      1.0000 0.99060  0.83630  0.18450  Biso   1.000  C
  C74      1.0000 0.99060  0.16370  0.31550  Biso   1.000  C
  C75      1.0000 0.00940  0.16370  0.18450  Biso   1.000  C
  C76      1.0000 0.00940  0.83630  0.31550  Biso   1.000  C
  C77      1.0000 0.16370  0.00940  0.68450  Biso   1.000  C
  C78      1.0000 0.16370  0.99060  0.81550  Biso   1.000  C
  C79      1.0000 0.83630  0.00940  0.81550  Biso   1.000  C
  C80      1.0000 0.83630  0.99060  0.68450  Biso   1.000  C
  H1       1.0000 0.44330  0.78180  0.10730  Biso   1.000  H
  H2       1.0000 0.44330  0.21820  0.39270  Biso   1.000  H
  H3       1.0000 0.55670  0.21820  0.10730  Biso   1.000  H
  H4       1.0000 0.55670  0.78180  0.39270  Biso   1.000  H
  H5       1.0000 0.21820  0.55670  0.60730  Biso   1.000  H
  H6       1.0000 0.21820  0.44330  0.89270  Biso   1.000  H
  H7       1.0000 0.78180  0.55670  0.89270  Biso   1.000  H
  H8       1.0000 0.78180  0.44330  0.60730  Biso   1.000  H
  H9       1.0000 0.42020  0.62090  0.04320  Biso   1.000  H
  H10      1.0000 0.42020  0.37910  0.45680  Biso   1.000  H
  H11      1.0000 0.57980  0.37910  0.04320  Biso   1.000  H
  H12      1.0000 0.57980  0.62090  0.45680  Biso   1.000  H
  H13      1.0000 0.37910  0.57980  0.54320  Biso   1.000  H
  H14      1.0000 0.37910  0.42020  0.95680  Biso   1.000  H
  H15      1.0000 0.62090  0.57980  0.95680  Biso   1.000  H
  H16      1.0000 0.62090  0.42020  0.54320  Biso   1.000  H
  H17      1.0000 0.27860  0.54110  0.10530  Biso   1.000  H
  H18      1.0000 0.27860  0.45890  0.39470  Biso   1.000  H
  H19      1.0000 0.72140  0.45890  0.10530  Biso   1.000  H
  H20      1.0000 0.72140  0.54110  0.39470  Biso   1.000  H
  H21      1.0000 0.45890  0.72140  0.60530  Biso   1.000  H
  H22      1.0000 0.45890  0.27860  0.89470  Biso   1.000  H
  H23      1.0000 0.54110  0.72140  0.89470  Biso   1.000  H
  H24      1.0000 0.54110  0.27860  0.60530  Biso   1.000  H
  H25      1.0000 0.16330  0.61260  0.25330  Biso   1.000  H
  H26      1.0000 0.16330  0.38740  0.24670  Biso   1.000  H
  H27      1.0000 0.83670  0.38740  0.25330  Biso   1.000  H
  H28      1.0000 0.83670  0.61260  0.24670  Biso   1.000  H
  H29      1.0000 0.38740  0.83670  0.75330  Biso   1.000  H
  H30      1.0000 0.38740  0.16330  0.74670  Biso   1.000  H
  H31      1.0000 0.61260  0.83670  0.74670  Biso   1.000  H
  H32      1.0000 0.61260  0.16330  0.75330  Biso   1.000  H
  H33      1.0000 0.20540  0.94620  0.39380  Biso   1.000  H
  H34      1.0000 0.20540  0.05380  0.10620  Biso   1.000  H
  H35      1.0000 0.79460  0.05380  0.39380  Biso   1.000  H
  H36      1.0000 0.79460  0.94620  0.10620  Biso   1.000  H
  H37      1.0000 0.05380  0.79460  0.89380  Biso   1.000  H
  H38      1.0000 0.05380  0.20540  0.60620  Biso   1.000  H
  H39      1.0000 0.94620  0.79460  0.60620  Biso   1.000  H
  H40      1.0000 0.94620  0.20540  0.89380  Biso   1.000  H
  H41      1.0000 0.06950  0.85580  0.45960  Biso   1.000  H
  H42      1.0000 0.06950  0.14420  0.04040  Biso   1.000  H
  H43      1.0000 0.93050  0.14420  0.45960  Biso   1.000  H
  H44      1.0000 0.93050  0.85580  0.04040  Biso   1.000  H
  H45      1.0000 0.14420  0.93050  0.95960  Biso   1.000  H
  H46      1.0000 0.14420  0.06950  0.54040  Biso   1.000  H
  H47      1.0000 0.85580  0.93050  0.54040  Biso   1.000  H
  H48      1.0000 0.85580  0.06950  0.95960  Biso   1.000  H
  H49      1.0000 0.09410  0.74850  0.49590  Biso   1.000  H
  H50      1.0000 0.09410  0.25150  0.00410  Biso   1.000  H
  H51      1.0000 0.90590  0.25150  0.49590  Biso   1.000  H
  H52      1.0000 0.90590  0.74850  0.00410  Biso   1.000  H
  H53      1.0000 0.25150  0.90590  0.99590  Biso   1.000  H
  H54      1.0000 0.25150  0.09410  0.50410  Biso   1.000  H
  H55      1.0000 0.74850  0.90590  0.50410  Biso   1.000  H
  H56      1.0000 0.74850  0.09410  0.99590  Biso   1.000  H
  H57      1.0000 0.94970  0.75210  0.36560  Biso   1.000  H
  H58      1.0000 0.94970  0.24790  0.13440  Biso   1.000  H
  H59      1.0000 0.05030  0.24790  0.36560  Biso   1.000  H
  H60      1.0000 0.05030  0.75210  0.13440  Biso   1.000  H
  H61      1.0000 0.24790  0.05030  0.86560  Biso   1.000  H
  H62      1.0000 0.24790  0.94970  0.63440  Biso   1.000  H
  H63      1.0000 0.75210  0.05030  0.63440  Biso   1.000  H
  H64      1.0000 0.75210  0.94970  0.86560  Biso   1.000  H
  H65      1.0000 0.02660  0.70080  0.26560  Biso   1.000  H
  H66      1.0000 0.02660  0.29920  0.23440  Biso   1.000  H
  H67      1.0000 0.97340  0.29920  0.26560  Biso   1.000  H
  H68      1.0000 0.97340  0.70080  0.23440  Biso   1.000  H
  H69      1.0000 0.29920  0.97340  0.76560  Biso   1.000  H
  H70      1.0000 0.29920  0.02660  0.73440  Biso   1.000  H
  H71      1.0000 0.70080  0.97340  0.73440  Biso   1.000  H
  H72      1.0000 0.70080  0.02660  0.76560  Biso   1.000  H
  H73      1.0000 0.97000  0.89700  0.22680  Biso   1.000  H
  H74      1.0000 0.97000  0.10300  0.27320  Biso   1.000  H
  H75      1.0000 0.03000  0.10300  0.22680  Biso   1.000  H
  H76      1.0000 0.03000  0.89700  0.27320  Biso   1.000  H
  H77      1.0000 0.10300  0.03000  0.72680  Biso   1.000  H
  H78      1.0000 0.10300  0.97000  0.77320  Biso   1.000  H
  H79      1.0000 0.89700  0.03000  0.77320  Biso   1.000  H
  H80      1.0000 0.89700  0.97000  0.72680  Biso   1.000  H
  H81      1.0000 0.04890  0.84700  0.12790  Biso   1.000  H
  H82      1.0000 0.04890  0.15300  0.37210  Biso   1.000  H
  H83      1.0000 0.95110  0.15300  0.12790  Biso   1.000  H
  H84      1.0000 0.95110  0.84700  0.37210  Biso   1.000  H
  H85      1.0000 0.15300  0.95110  0.62790  Biso   1.000  H
  H86      1.0000 0.15300  0.04890  0.87210  Biso   1.000  H
  H87      1.0000 0.84700  0.95110  0.87210  Biso   1.000  H
  H88      1.0000 0.84700  0.04890  0.62790  Biso   1.000  H
