data_image0
_cell_length_a       13.582
_cell_length_b       13.9512
_cell_length_c       10.6531
_cell_angle_alpha    90
_cell_angle_beta     90
_cell_angle_gamma    90

_symmetry_space_group_name_H-M    "P 1"
_symmetry_int_tables_number       1

loop_
  _symmetry_equiv_pos_as_xyz
  'x, y, z'

loop_
  _atom_site_label
  _atom_site_occupancy
  _atom_site_fract_x
  _atom_site_fract_y
  _atom_site_fract_z
  _atom_site_thermal_displace_type
  _atom_site_B_iso_or_equiv
  _atom_site_type_symbol
  Cu1      1.0000 0.63574  0.11682  0.47370  Biso   1.000  Cu
  Cu2      1.0000 0.36426  0.88318  0.47370  Biso   1.000  Cu
  Cu3      1.0000 0.86426  0.61682  0.52630  Biso   1.000  Cu
  Cu4      1.0000 0.13574  0.38318  0.52630  Biso   1.000  Cu
  Cu5      1.0000 0.89830  0.86650  0.21380  Biso   1.000  Cu
  Cu6      1.0000 0.10170  0.13350  0.21380  Biso   1.000  Cu
  Cu7      1.0000 0.60170  0.36650  0.78620  Biso   1.000  Cu
  Cu8      1.0000 0.39830  0.63350  0.78620  Biso   1.000  Cu
  Cu9      1.0000 0.00000  0.00000  0.82730  Biso   1.000  Cu
  Cu10     1.0000 0.50000  0.50000  0.17270  Biso   1.000  Cu
  Cu11     1.0000 0.00000  0.00000  0.37430  Biso   1.000  Cu
  Cu12     1.0000 0.50000  0.50000  0.62570  Biso   1.000  Cu
  Co1      1.0000 0.50000  0.00000  0.98527  Biso   1.000  Co
  Co2      1.0000 0.00000  0.50000  0.01473  Biso   1.000  Co
  N1       1.0000 0.96670  0.52700  0.53520  Biso   1.000  N
  N2       1.0000 0.03330  0.47300  0.53520  Biso   1.000  N
  N3       1.0000 0.53330  0.02700  0.46480  Biso   1.000  N
  N4       1.0000 0.46670  0.97300  0.46480  Biso   1.000  N
  N5       1.0000 0.87530  0.78480  0.35670  Biso   1.000  N
  N6       1.0000 0.12470  0.21520  0.35670  Biso   1.000  N
  N7       1.0000 0.62470  0.28480  0.64330  Biso   1.000  N
  N8       1.0000 0.37530  0.71520  0.64330  Biso   1.000  N
  N9       1.0000 0.93360  0.91550  0.94730  Biso   1.000  N
  N10      1.0000 0.06640  0.08450  0.94730  Biso   1.000  N
  N11      1.0000 0.56640  0.41550  0.05270  Biso   1.000  N
  N12      1.0000 0.43360  0.58450  0.05270  Biso   1.000  N
  N13      1.0000 0.00000  0.00000  0.54970  Biso   1.000  N
  N14      1.0000 0.50000  0.50000  0.45030  Biso   1.000  N
  N15      1.0000 0.75860  0.08570  0.39080  Biso   1.000  N
  N16      1.0000 0.24140  0.91430  0.39080  Biso   1.000  N
  N17      1.0000 0.74140  0.58570  0.60920  Biso   1.000  N
  N18      1.0000 0.25860  0.41430  0.60920  Biso   1.000  N
  N19      1.0000 0.46540  0.10000  0.12700  Biso   1.000  N
  N20      1.0000 0.53460  0.90000  0.12700  Biso   1.000  N
  N21      1.0000 0.03460  0.60000  0.87300  Biso   1.000  N
  N22      1.0000 0.96540  0.40000  0.87300  Biso   1.000  N
  N23      1.0000 0.61640  0.08360  0.98620  Biso   1.000  N
  N24      1.0000 0.38360  0.91640  0.98620  Biso   1.000  N
  N25      1.0000 0.88360  0.58360  0.01380  Biso   1.000  N
  N26      1.0000 0.11640  0.41640  0.01380  Biso   1.000  N
  N27      1.0000 0.59020  0.93720  0.84380  Biso   1.000  N
  N28      1.0000 0.40980  0.06280  0.84380  Biso   1.000  N
  N29      1.0000 0.90980  0.43720  0.15620  Biso   1.000  N
  N30      1.0000 0.09020  0.56280  0.15620  Biso   1.000  N
  S1       1.0000 0.90470  0.05300  0.24170  Biso   1.000  S
  S2       1.0000 0.09530  0.94700  0.24170  Biso   1.000  S
  S3       1.0000 0.59530  0.55300  0.75830  Biso   1.000  S
  S4       1.0000 0.40470  0.44700  0.75830  Biso   1.000  S
  C1       1.0000 0.87000  0.72780  0.43200  Biso   1.000  C
  C2       1.0000 0.13000  0.27220  0.43200  Biso   1.000  C
  C3       1.0000 0.63000  0.22780  0.56800  Biso   1.000  C
  C4       1.0000 0.37000  0.77220  0.56800  Biso   1.000  C
  C5       1.0000 0.91200  0.89200  0.04600  Biso   1.000  C
  C6       1.0000 0.08800  0.10800  0.04600  Biso   1.000  C
  C7       1.0000 0.58800  0.39200  0.95400  Biso   1.000  C
  C8       1.0000 0.41200  0.60800  0.95400  Biso   1.000  C
  C9       1.0000 0.00000  0.00000  0.65670  Biso   1.000  C
  C10      1.0000 0.50000  0.50000  0.34330  Biso   1.000  C
  C11      1.0000 0.82160  0.06510  0.34710  Biso   1.000  C
  C12      1.0000 0.17840  0.93490  0.34710  Biso   1.000  C
  C13      1.0000 0.67840  0.56510  0.65290  Biso   1.000  C
  C14      1.0000 0.32160  0.43490  0.65290  Biso   1.000  C
  C15      1.0000 0.38380  0.10430  0.19670  Biso   1.000  C
  C16      1.0000 0.61620  0.89570  0.19670  Biso   1.000  C
  C17      1.0000 0.11620  0.60430  0.80330  Biso   1.000  C
  C18      1.0000 0.88380  0.39570  0.80330  Biso   1.000  C
  H1       1.0000 0.33330  0.06090  0.18080  Biso   1.000  H
  H2       1.0000 0.66670  0.93910  0.18080  Biso   1.000  H
  H3       1.0000 0.16670  0.56090  0.81920  Biso   1.000  H
  H4       1.0000 0.83330  0.43910  0.81920  Biso   1.000  H
  C19      1.0000 0.37100  0.17280  0.29450  Biso   1.000  C
  C20      1.0000 0.62900  0.82720  0.29450  Biso   1.000  C
  C21      1.0000 0.12900  0.67280  0.70550  Biso   1.000  C
  C22      1.0000 0.87100  0.32720  0.70550  Biso   1.000  C
  H5       1.0000 0.31300  0.17460  0.34090  Biso   1.000  H
  H6       1.0000 0.68700  0.82540  0.34090  Biso   1.000  H
  H7       1.0000 0.18700  0.67460  0.65910  Biso   1.000  H
  H8       1.0000 0.81300  0.32540  0.65910  Biso   1.000  H
  C23      1.0000 0.44570  0.23590  0.31900  Biso   1.000  C
  C24      1.0000 0.55430  0.76410  0.31900  Biso   1.000  C
  C25      1.0000 0.05430  0.73590  0.68100  Biso   1.000  C
  C26      1.0000 0.94570  0.26410  0.68100  Biso   1.000  C
  H9       1.0000 0.44030  0.28120  0.38270  Biso   1.000  H
  H10      1.0000 0.55970  0.71880  0.38270  Biso   1.000  H
  H11      1.0000 0.05970  0.78120  0.61730  Biso   1.000  H
  H12      1.0000 0.94030  0.21880  0.61730  Biso   1.000  H
  C27      1.0000 0.52810  0.23010  0.24670  Biso   1.000  C
  C28      1.0000 0.47190  0.76990  0.24670  Biso   1.000  C
  C29      1.0000 0.97190  0.73010  0.75330  Biso   1.000  C
  C30      1.0000 0.02810  0.26990  0.75330  Biso   1.000  C
  H13      1.0000 0.57870  0.27340  0.26200  Biso   1.000  H
  H14      1.0000 0.42130  0.72660  0.26200  Biso   1.000  H
  H15      1.0000 0.92130  0.77340  0.73800  Biso   1.000  H
  H16      1.0000 0.07870  0.22660  0.73800  Biso   1.000  H
  C31      1.0000 0.54100  0.16290  0.15100  Biso   1.000  C
  C32      1.0000 0.45900  0.83710  0.15100  Biso   1.000  C
  C33      1.0000 0.95900  0.66290  0.84900  Biso   1.000  C
  C34      1.0000 0.04100  0.33710  0.84900  Biso   1.000  C
  C35      1.0000 0.62670  0.15390  0.07260  Biso   1.000  C
  C36      1.0000 0.37330  0.84610  0.07260  Biso   1.000  C
  C37      1.0000 0.87330  0.65390  0.92740  Biso   1.000  C
  C38      1.0000 0.12670  0.34610  0.92740  Biso   1.000  C
  C39      1.0000 0.71020  0.20890  0.07450  Biso   1.000  C
  C40      1.0000 0.28980  0.79110  0.07450  Biso   1.000  C
  C41      1.0000 0.78980  0.70890  0.92550  Biso   1.000  C
  C42      1.0000 0.21020  0.29110  0.92550  Biso   1.000  C
  H17      1.0000 0.71520  0.25920  0.13140  Biso   1.000  H
  H18      1.0000 0.28480  0.74080  0.13140  Biso   1.000  H
  H19      1.0000 0.78480  0.75920  0.86860  Biso   1.000  H
  H20      1.0000 0.21520  0.24080  0.86860  Biso   1.000  H
  C43      1.0000 0.78520  0.19110  0.99450  Biso   1.000  C
  C44      1.0000 0.21480  0.80890  0.99450  Biso   1.000  C
  C45      1.0000 0.71480  0.69110  0.00550  Biso   1.000  C
  C46      1.0000 0.28520  0.30890  0.00550  Biso   1.000  C
  H21      1.0000 0.84280  0.22680  0.00010  Biso   1.000  H
  H22      1.0000 0.15720  0.77320  0.00010  Biso   1.000  H
  H23      1.0000 0.65720  0.72680  0.99990  Biso   1.000  H
  H24      1.0000 0.34280  0.27320  0.99990  Biso   1.000  H
  C47      1.0000 0.77730  0.12240  0.90770  Biso   1.000  C
  C48      1.0000 0.22270  0.87760  0.90770  Biso   1.000  C
  C49      1.0000 0.72270  0.62240  0.09230  Biso   1.000  C
  C50      1.0000 0.27730  0.37760  0.09230  Biso   1.000  C
  H25      1.0000 0.82760  0.11200  0.85010  Biso   1.000  H
  H26      1.0000 0.17240  0.88800  0.85010  Biso   1.000  H
  H27      1.0000 0.67240  0.61200  0.14990  Biso   1.000  H
  H28      1.0000 0.32760  0.38800  0.14990  Biso   1.000  H
  C51      1.0000 0.69130  0.06620  0.90510  Biso   1.000  C
  C52      1.0000 0.30870  0.93380  0.90510  Biso   1.000  C
  C53      1.0000 0.80870  0.56620  0.09490  Biso   1.000  C
  C54      1.0000 0.19130  0.43380  0.09490  Biso   1.000  C
  C55      1.0000 0.67150  0.98450  0.81820  Biso   1.000  C
  C56      1.0000 0.32850  0.01550  0.81820  Biso   1.000  C
  C57      1.0000 0.82850  0.48450  0.18180  Biso   1.000  C
  C58      1.0000 0.17150  0.51550  0.18180  Biso   1.000  C
  C59      1.0000 0.73300  0.96090  0.71650  Biso   1.000  C
  C60      1.0000 0.26700  0.03910  0.71650  Biso   1.000  C
  C61      1.0000 0.76700  0.46090  0.28350  Biso   1.000  C
  C62      1.0000 0.23300  0.53910  0.28350  Biso   1.000  C
  H29      1.0000 0.78820  0.99770  0.69790  Biso   1.000  H
  H30      1.0000 0.21180  0.00230  0.69790  Biso   1.000  H
  H31      1.0000 0.71180  0.49770  0.30210  Biso   1.000  H
  H32      1.0000 0.28820  0.50230  0.30210  Biso   1.000  H
  C63      1.0000 0.70950  0.88220  0.64570  Biso   1.000  C
  C64      1.0000 0.29050  0.11780  0.64570  Biso   1.000  C
  C65      1.0000 0.79050  0.38220  0.35430  Biso   1.000  C
  C66      1.0000 0.20950  0.61780  0.35430  Biso   1.000  C
  H33      1.0000 0.75050  0.86240  0.58080  Biso   1.000  H
  H34      1.0000 0.24950  0.13760  0.58080  Biso   1.000  H
  H35      1.0000 0.74950  0.36240  0.41920  Biso   1.000  H
  H36      1.0000 0.25050  0.63760  0.41920  Biso   1.000  H
  C67      1.0000 0.62620  0.83400  0.67130  Biso   1.000  C
  C68      1.0000 0.37380  0.16600  0.67130  Biso   1.000  C
  C69      1.0000 0.87380  0.33400  0.32870  Biso   1.000  C
  C70      1.0000 0.12620  0.66600  0.32870  Biso   1.000  C
  H37      1.0000 0.60800  0.78200  0.62190  Biso   1.000  H
  H38      1.0000 0.39200  0.21800  0.62190  Biso   1.000  H
  H39      1.0000 0.89200  0.28200  0.37810  Biso   1.000  H
  H40      1.0000 0.10800  0.71800  0.37810  Biso   1.000  H
  C71      1.0000 0.56670  0.86190  0.77250  Biso   1.000  C
  C72      1.0000 0.43330  0.13810  0.77250  Biso   1.000  C
  C73      1.0000 0.93330  0.36190  0.22750  Biso   1.000  C
  C74      1.0000 0.06670  0.63810  0.22750  Biso   1.000  C
  H41      1.0000 0.50980  0.82730  0.79030  Biso   1.000  H
  H42      1.0000 0.49020  0.17270  0.79030  Biso   1.000  H
  H43      1.0000 0.99020  0.32730  0.20970  Biso   1.000  H
  H44      1.0000 0.00980  0.67270  0.20970  Biso   1.000  H
