data_image0
_cell_length_a       13.535
_cell_length_b       14.232
_cell_length_c       10.638
_cell_angle_alpha    90
_cell_angle_beta     90
_cell_angle_gamma    90

_symmetry_space_group_name_H-M    "P 1"
_symmetry_int_tables_number       1

loop_
  _symmetry_equiv_pos_as_xyz
  'x, y, z'

loop_
  _atom_site_label
  _atom_site_occupancy
  _atom_site_fract_x
  _atom_site_fract_y
  _atom_site_fract_z
  _atom_site_thermal_displace_type
  _atom_site_B_iso_or_equiv
  _atom_site_type_symbol
  Cu1      1.0000 0.12729  0.87717  0.50469  Biso   1.000  Cu
  Cu2      1.0000 0.87271  0.12283  0.50469  Biso   1.000  Cu
  Cu3      1.0000 0.37271  0.37717  0.49531  Biso   1.000  Cu
  Cu4      1.0000 0.62729  0.62283  0.49531  Biso   1.000  Cu
  Cu5      1.0000 0.39702  0.12973  0.19004  Biso   1.000  Cu
  Cu6      1.0000 0.60298  0.87027  0.19004  Biso   1.000  Cu
  Cu7      1.0000 0.10298  0.62973  0.80996  Biso   1.000  Cu
  Cu8      1.0000 0.89702  0.37027  0.80996  Biso   1.000  Cu
  Cu9      1.0000 0.50000  0.00000  0.80165  Biso   1.000  Cu
  Cu10     1.0000 0.00000  0.50000  0.19835  Biso   1.000  Cu
  Cu11     1.0000 0.50000  0.00000  0.34530  Biso   1.000  Cu
  Cu12     1.0000 0.00000  0.50000  0.65470  Biso   1.000  Cu
  N1       1.0000 0.46950  0.47020  0.49750  Biso   1.000  N
  N2       1.0000 0.53050  0.52980  0.49750  Biso   1.000  N
  N3       1.0000 0.03050  0.97020  0.50250  Biso   1.000  N
  N4       1.0000 0.96950  0.02980  0.50250  Biso   1.000  N
  N5       1.0000 0.37720  0.20740  0.32690  Biso   1.000  N
  N6       1.0000 0.62280  0.79260  0.32690  Biso   1.000  N
  N7       1.0000 0.12280  0.70740  0.67310  Biso   1.000  N
  N8       1.0000 0.87720  0.29260  0.67310  Biso   1.000  N
  N9       1.0000 0.44120  0.08520  0.92270  Biso   1.000  N
  N10      1.0000 0.55880  0.91480  0.92270  Biso   1.000  N
  N11      1.0000 0.05880  0.58520  0.07730  Biso   1.000  N
  N12      1.0000 0.94120  0.41480  0.07730  Biso   1.000  N
  N13      1.0000 0.50000  0.00000  0.52620  Biso   1.000  N
  N14      1.0000 0.00000  0.50000  0.47380  Biso   1.000  N
  N15      1.0000 0.24360  0.90440  0.40160  Biso   1.000  N
  N16      1.0000 0.75640  0.09560  0.40160  Biso   1.000  N
  N17      1.0000 0.25640  0.40440  0.59840  Biso   1.000  N
  N18      1.0000 0.74360  0.59560  0.59840  Biso   1.000  N
  N19      1.0000 0.03340  0.09780  0.12780  Biso   1.000  N
  N20      1.0000 0.96660  0.90220  0.12780  Biso   1.000  N
  N21      1.0000 0.46660  0.59780  0.87220  Biso   1.000  N
  N22      1.0000 0.53340  0.40220  0.87220  Biso   1.000  N
  N23      1.0000 0.88000  0.08290  0.98280  Biso   1.000  N
  N24      1.0000 0.12000  0.91710  0.98280  Biso   1.000  N
  N25      1.0000 0.62000  0.58290  0.01720  Biso   1.000  N
  N26      1.0000 0.38000  0.41710  0.01720  Biso   1.000  N
  N27      1.0000 0.91110  0.93570  0.84520  Biso   1.000  N
  N28      1.0000 0.08890  0.06430  0.84520  Biso   1.000  N
  N29      1.0000 0.58890  0.43570  0.15480  Biso   1.000  N
  N30      1.0000 0.41110  0.56430  0.15480  Biso   1.000  N
  Ni1      1.0000 0.00000  0.00000  0.98426  Biso   1.000  Ni
  Ni2      1.0000 0.50000  0.50000  0.01574  Biso   1.000  Ni
  S1       1.0000 0.37860  0.94890  0.22220  Biso   1.000  S
  S2       1.0000 0.62140  0.05110  0.22220  Biso   1.000  S
  S3       1.0000 0.12140  0.44890  0.77780  Biso   1.000  S
  S4       1.0000 0.87860  0.55110  0.77780  Biso   1.000  S
  C1       1.0000 0.37190  0.26460  0.40640  Biso   1.000  C
  C2       1.0000 0.62810  0.73540  0.40640  Biso   1.000  C
  C3       1.0000 0.12810  0.76460  0.59360  Biso   1.000  C
  C4       1.0000 0.87190  0.23540  0.59360  Biso   1.000  C
  C5       1.0000 0.42380  0.10980  0.01860  Biso   1.000  C
  C6       1.0000 0.57620  0.89020  0.01860  Biso   1.000  C
  C7       1.0000 0.07620  0.60980  0.98140  Biso   1.000  C
  C8       1.0000 0.92380  0.39020  0.98140  Biso   1.000  C
  C9       1.0000 0.50000  0.00000  0.63060  Biso   1.000  C
  C10      1.0000 0.00000  0.50000  0.36940  Biso   1.000  C
  C11      1.0000 0.30110  0.92520  0.33570  Biso   1.000  C
  C12      1.0000 0.69890  0.07480  0.33570  Biso   1.000  C
  C13      1.0000 0.19890  0.42520  0.66430  Biso   1.000  C
  C14      1.0000 0.80110  0.57480  0.66430  Biso   1.000  C
  C15      1.0000 0.11380  0.10090  0.19800  Biso   1.000  C
  C16      1.0000 0.88620  0.89910  0.19800  Biso   1.000  C
  C17      1.0000 0.38620  0.60090  0.80200  Biso   1.000  C
  C18      1.0000 0.61380  0.39910  0.80200  Biso   1.000  C
  H1       1.0000 0.16510  0.05930  0.18060  Biso   1.000  H
  H2       1.0000 0.83490  0.94070  0.18060  Biso   1.000  H
  H3       1.0000 0.33490  0.55930  0.81940  Biso   1.000  H
  H4       1.0000 0.66510  0.44070  0.81940  Biso   1.000  H
  C19      1.0000 0.12470  0.16340  0.29630  Biso   1.000  C
  C20      1.0000 0.87530  0.83660  0.29630  Biso   1.000  C
  C21      1.0000 0.37530  0.66340  0.70370  Biso   1.000  C
  C22      1.0000 0.62470  0.33660  0.70370  Biso   1.000  C
  H5       1.0000 0.18190  0.16340  0.34480  Biso   1.000  H
  H6       1.0000 0.81810  0.83660  0.34480  Biso   1.000  H
  H7       1.0000 0.31810  0.66340  0.65520  Biso   1.000  H
  H8       1.0000 0.68190  0.33660  0.65520  Biso   1.000  H
  C23      1.0000 0.04830  0.22690  0.32170  Biso   1.000  C
  C24      1.0000 0.95170  0.77310  0.32170  Biso   1.000  C
  C25      1.0000 0.45170  0.72690  0.67830  Biso   1.000  C
  C26      1.0000 0.54830  0.27310  0.67830  Biso   1.000  C
  H9       1.0000 0.05240  0.26980  0.38750  Biso   1.000  H
  H10      1.0000 0.94760  0.73020  0.38750  Biso   1.000  H
  H11      1.0000 0.44760  0.76980  0.61250  Biso   1.000  H
  H12      1.0000 0.55240  0.23020  0.61250  Biso   1.000  H
  C27      1.0000 0.96870  0.22290  0.24650  Biso   1.000  C
  C28      1.0000 0.03130  0.77710  0.24650  Biso   1.000  C
  C29      1.0000 0.53130  0.72290  0.75350  Biso   1.000  C
  C30      1.0000 0.46870  0.27710  0.75350  Biso   1.000  C
  H13      1.0000 0.91710  0.26470  0.26120  Biso   1.000  H
  H14      1.0000 0.08290  0.73530  0.26120  Biso   1.000  H
  H15      1.0000 0.58290  0.76470  0.73880  Biso   1.000  H
  H16      1.0000 0.41710  0.23530  0.73880  Biso   1.000  H
  C31      1.0000 0.95940  0.15970  0.14800  Biso   1.000  C
  C32      1.0000 0.04060  0.84030  0.14800  Biso   1.000  C
  C33      1.0000 0.54060  0.65970  0.85200  Biso   1.000  C
  C34      1.0000 0.45940  0.34030  0.85200  Biso   1.000  C
  C35      1.0000 0.87390  0.15290  0.06780  Biso   1.000  C
  C36      1.0000 0.12610  0.84710  0.06780  Biso   1.000  C
  C37      1.0000 0.62610  0.65290  0.93220  Biso   1.000  C
  C38      1.0000 0.37390  0.34710  0.93220  Biso   1.000  C
  C39      1.0000 0.79000  0.21020  0.06600  Biso   1.000  C
  C40      1.0000 0.21000  0.78980  0.06600  Biso   1.000  C
  C41      1.0000 0.71000  0.71020  0.93400  Biso   1.000  C
  C42      1.0000 0.29000  0.28980  0.93400  Biso   1.000  C
  H17      1.0000 0.78350  0.25910  0.12340  Biso   1.000  H
  H18      1.0000 0.21650  0.74090  0.12340  Biso   1.000  H
  H19      1.0000 0.71650  0.75910  0.87660  Biso   1.000  H
  H20      1.0000 0.28350  0.24090  0.87660  Biso   1.000  H
  C43      1.0000 0.71820  0.19380  0.97980  Biso   1.000  C
  C44      1.0000 0.28180  0.80620  0.97980  Biso   1.000  C
  C45      1.0000 0.78180  0.69380  0.02020  Biso   1.000  C
  C46      1.0000 0.21820  0.30620  0.02020  Biso   1.000  C
  H21      1.0000 0.66250  0.23210  0.97800  Biso   1.000  H
  H22      1.0000 0.33750  0.76790  0.97800  Biso   1.000  H
  H23      1.0000 0.83750  0.73210  0.02200  Biso   1.000  H
  H24      1.0000 0.16250  0.26790  0.02200  Biso   1.000  H
  C47      1.0000 0.72630  0.12360  0.89760  Biso   1.000  C
  C48      1.0000 0.27370  0.87640  0.89760  Biso   1.000  C
  C49      1.0000 0.77370  0.62360  0.10240  Biso   1.000  C
  C50      1.0000 0.22630  0.37640  0.10240  Biso   1.000  C
  H25      1.0000 0.67620  0.11340  0.83940  Biso   1.000  H
  H26      1.0000 0.32380  0.88660  0.83940  Biso   1.000  H
  H27      1.0000 0.82380  0.61340  0.16060  Biso   1.000  H
  H28      1.0000 0.17620  0.38660  0.16060  Biso   1.000  H
  C51      1.0000 0.80820  0.06580  0.89780  Biso   1.000  C
  C52      1.0000 0.19180  0.93420  0.89780  Biso   1.000  C
  C53      1.0000 0.69180  0.56580  0.10220  Biso   1.000  C
  C54      1.0000 0.30820  0.43420  0.10220  Biso   1.000  C
  C55      1.0000 0.82850  0.98230  0.81620  Biso   1.000  C
  C56      1.0000 0.17150  0.01770  0.81620  Biso   1.000  C
  C57      1.0000 0.67150  0.48230  0.18380  Biso   1.000  C
  C58      1.0000 0.32850  0.51770  0.18380  Biso   1.000  C
  C59      1.0000 0.76550  0.95640  0.71920  Biso   1.000  C
  C60      1.0000 0.23450  0.04360  0.71920  Biso   1.000  C
  C61      1.0000 0.73450  0.45640  0.28080  Biso   1.000  C
  C62      1.0000 0.26550  0.54360  0.28080  Biso   1.000  C
  H29      1.0000 0.70940  0.99140  0.70030  Biso   1.000  H
  H30      1.0000 0.29060  0.00860  0.70030  Biso   1.000  H
  H31      1.0000 0.79060  0.49140  0.29970  Biso   1.000  H
  H32      1.0000 0.20940  0.50860  0.29970  Biso   1.000  H
  C63      1.0000 0.78880  0.87860  0.65360  Biso   1.000  C
  C64      1.0000 0.21120  0.12140  0.65360  Biso   1.000  C
  C65      1.0000 0.71120  0.37860  0.34640  Biso   1.000  C
  C66      1.0000 0.28880  0.62140  0.34640  Biso   1.000  C
  H33      1.0000 0.74760  0.85970  0.58830  Biso   1.000  H
  H34      1.0000 0.25240  0.14030  0.58830  Biso   1.000  H
  H35      1.0000 0.75240  0.35970  0.41170  Biso   1.000  H
  H36      1.0000 0.24760  0.64030  0.41170  Biso   1.000  H
  C67      1.0000 0.87260  0.82530  0.68030  Biso   1.000  C
  C68      1.0000 0.12740  0.17470  0.68030  Biso   1.000  C
  C69      1.0000 0.62740  0.32530  0.31970  Biso   1.000  C
  C70      1.0000 0.37260  0.67470  0.31970  Biso   1.000  C
  H37      1.0000 0.88790  0.77080  0.63620  Biso   1.000  H
  H38      1.0000 0.11210  0.22920  0.63620  Biso   1.000  H
  H39      1.0000 0.61210  0.27080  0.36380  Biso   1.000  H
  H40      1.0000 0.38790  0.72920  0.36380  Biso   1.000  H
  C71      1.0000 0.93340  0.85970  0.77950  Biso   1.000  C
  C72      1.0000 0.06660  0.14030  0.77950  Biso   1.000  C
  C73      1.0000 0.56660  0.35970  0.22050  Biso   1.000  C
  C74      1.0000 0.43340  0.64030  0.22050  Biso   1.000  C
  H41      1.0000 0.99110  0.82740  0.79890  Biso   1.000  H
  H42      1.0000 0.00890  0.17260  0.79890  Biso   1.000  H
  H43      1.0000 0.50890  0.32740  0.20110  Biso   1.000  H
  H44      1.0000 0.49110  0.67260  0.20110  Biso   1.000  H
