data_image0
_cell_length_a       10.0389
_cell_length_b       11.3316
_cell_length_c       16.6903
_cell_angle_alpha    90
_cell_angle_beta     90
_cell_angle_gamma    90

_symmetry_space_group_name_H-M    "P 1"
_symmetry_int_tables_number       1

loop_
  _symmetry_equiv_pos_as_xyz
  'x, y, z'

loop_
  _atom_site_label
  _atom_site_occupancy
  _atom_site_fract_x
  _atom_site_fract_y
  _atom_site_fract_z
  _atom_site_thermal_displace_type
  _atom_site_B_iso_or_equiv
  _atom_site_type_symbol
  Cu1      1.0000 0.47768  0.68830  0.57961  Biso   1.000  Cu
  Cu2      1.0000 0.52232  0.31170  0.57961  Biso   1.000  Cu
  Cu3      1.0000 0.02232  0.18830  0.92039  Biso   1.000  Cu
  Cu4      1.0000 0.97768  0.81170  0.92039  Biso   1.000  Cu
  Cu5      1.0000 0.52232  0.31170  0.42039  Biso   1.000  Cu
  Cu6      1.0000 0.47768  0.68830  0.42039  Biso   1.000  Cu
  Cu7      1.0000 0.97768  0.81170  0.07961  Biso   1.000  Cu
  Cu8      1.0000 0.02232  0.18830  0.07961  Biso   1.000  Cu
  Cl1      1.0000 0.29900  0.72680  0.50000  Biso   1.000  Cl
  Cl2      1.0000 0.70100  0.27320  0.50000  Biso   1.000  Cl
  Cl3      1.0000 0.20100  0.22680  0.00000  Biso   1.000  Cl
  Cl4      1.0000 0.79900  0.77320  0.00000  Biso   1.000  Cl
  Cl5      1.0000 0.50000  0.50000  0.62944  Biso   1.000  Cl
  Cl6      1.0000 0.00000  0.00000  0.87056  Biso   1.000  Cl
  Cl7      1.0000 0.50000  0.50000  0.37056  Biso   1.000  Cl
  Cl8      1.0000 0.00000  0.00000  0.12944  Biso   1.000  Cl
  N1       1.0000 0.55860  0.79520  0.66560  Biso   1.000  N
  N2       1.0000 0.44140  0.20480  0.66560  Biso   1.000  N
  N3       1.0000 0.94140  0.29520  0.83440  Biso   1.000  N
  N4       1.0000 0.05860  0.70480  0.83440  Biso   1.000  N
  N5       1.0000 0.44140  0.20480  0.33440  Biso   1.000  N
  N6       1.0000 0.55860  0.79520  0.33440  Biso   1.000  N
  N7       1.0000 0.05860  0.70480  0.16560  Biso   1.000  N
  N8       1.0000 0.94140  0.29520  0.16560  Biso   1.000  N
  C1       1.0000 0.54830  0.95410  0.57180  Biso   1.000  C
  C2       1.0000 0.45170  0.04590  0.57180  Biso   1.000  C
  C3       1.0000 0.95170  0.45410  0.92820  Biso   1.000  C
  C4       1.0000 0.04830  0.54590  0.92820  Biso   1.000  C
  C5       1.0000 0.45170  0.04590  0.42820  Biso   1.000  C
  C6       1.0000 0.54830  0.95410  0.42820  Biso   1.000  C
  C7       1.0000 0.04830  0.54590  0.07180  Biso   1.000  C
  C8       1.0000 0.95170  0.45410  0.07180  Biso   1.000  C
  C9       1.0000 0.59510  0.90630  0.65070  Biso   1.000  C
  C10      1.0000 0.40490  0.09370  0.65070  Biso   1.000  C
  C11      1.0000 0.90490  0.40630  0.84930  Biso   1.000  C
  C12      1.0000 0.09510  0.59370  0.84930  Biso   1.000  C
  C13      1.0000 0.40490  0.09370  0.34930  Biso   1.000  C
  C14      1.0000 0.59510  0.90630  0.34930  Biso   1.000  C
  C15      1.0000 0.09510  0.59370  0.15070  Biso   1.000  C
  C16      1.0000 0.90490  0.40630  0.15070  Biso   1.000  C
  N9       1.0000 0.67330  0.70870  0.50000  Biso   1.000  N
  N10      1.0000 0.32670  0.29130  0.50000  Biso   1.000  N
  N11      1.0000 0.82670  0.20870  0.00000  Biso   1.000  N
  N12      1.0000 0.17330  0.79130  0.00000  Biso   1.000  N
  C17      1.0000 0.59800  0.91290  0.50000  Biso   1.000  C
  C18      1.0000 0.40200  0.08710  0.50000  Biso   1.000  C
  C19      1.0000 0.90200  0.41290  0.00000  Biso   1.000  C
  C20      1.0000 0.09800  0.58710  0.00000  Biso   1.000  C
  C21      1.0000 0.70770  0.82350  0.50000  Biso   1.000  C
  C22      1.0000 0.29230  0.17650  0.50000  Biso   1.000  C
  C23      1.0000 0.79230  0.32350  0.00000  Biso   1.000  C
  C24      1.0000 0.20770  0.67650  0.00000  Biso   1.000  C
  C25      1.0000 0.66560  0.97190  0.70530  Biso   1.000  C
  C26      1.0000 0.33440  0.02810  0.70530  Biso   1.000  C
  C27      1.0000 0.83440  0.47190  0.79470  Biso   1.000  C
  C28      1.0000 0.16560  0.52810  0.79470  Biso   1.000  C
  C29      1.0000 0.33440  0.02810  0.29470  Biso   1.000  C
  C30      1.0000 0.66560  0.97190  0.29470  Biso   1.000  C
  C31      1.0000 0.16560  0.52810  0.20530  Biso   1.000  C
  C32      1.0000 0.83440  0.47190  0.20530  Biso   1.000  C
  H1       1.0000 0.69192  0.04841  0.69291  Biso   1.000  H
  H2       1.0000 0.30808  0.95159  0.69291  Biso   1.000  H
  H3       1.0000 0.80808  0.54841  0.80709  Biso   1.000  H
  H4       1.0000 0.19192  0.45159  0.80709  Biso   1.000  H
  H5       1.0000 0.30808  0.95159  0.30709  Biso   1.000  H
  H6       1.0000 0.69192  0.04841  0.30709  Biso   1.000  H
  H7       1.0000 0.19192  0.45159  0.19291  Biso   1.000  H
  H8       1.0000 0.80808  0.54841  0.19291  Biso   1.000  H
  C33      1.0000 0.59000  0.74890  0.73780  Biso   1.000  C
  C34      1.0000 0.41000  0.25110  0.73780  Biso   1.000  C
  C35      1.0000 0.91000  0.24890  0.76220  Biso   1.000  C
  C36      1.0000 0.09000  0.75110  0.76220  Biso   1.000  C
  C37      1.0000 0.41000  0.25110  0.26220  Biso   1.000  C
  C38      1.0000 0.59000  0.74890  0.26220  Biso   1.000  C
  C39      1.0000 0.09000  0.75110  0.23780  Biso   1.000  C
  C40      1.0000 0.91000  0.24890  0.23780  Biso   1.000  C
  H9       1.0000 0.56378  0.67210  0.74952  Biso   1.000  H
  H10      1.0000 0.43622  0.32790  0.74952  Biso   1.000  H
  H11      1.0000 0.93622  0.17210  0.75048  Biso   1.000  H
  H12      1.0000 0.06378  0.82790  0.75048  Biso   1.000  H
  H13      1.0000 0.43622  0.32790  0.25048  Biso   1.000  H
  H14      1.0000 0.56378  0.67210  0.25048  Biso   1.000  H
  H15      1.0000 0.06378  0.82790  0.24952  Biso   1.000  H
  H16      1.0000 0.93622  0.17210  0.24952  Biso   1.000  H
  C41      1.0000 0.66020  0.81260  0.79480  Biso   1.000  C
  C42      1.0000 0.33980  0.18740  0.79480  Biso   1.000  C
  C43      1.0000 0.83980  0.31260  0.70520  Biso   1.000  C
  C44      1.0000 0.16020  0.68740  0.70520  Biso   1.000  C
  C45      1.0000 0.33980  0.18740  0.20520  Biso   1.000  C
  C46      1.0000 0.66020  0.81260  0.20520  Biso   1.000  C
  C47      1.0000 0.16020  0.68740  0.29480  Biso   1.000  C
  C48      1.0000 0.83980  0.31260  0.29480  Biso   1.000  C
  H17      1.0000 0.68158  0.77878  0.84390  Biso   1.000  H
  H18      1.0000 0.31842  0.22122  0.84390  Biso   1.000  H
  H19      1.0000 0.81842  0.27878  0.65610  Biso   1.000  H
  H20      1.0000 0.18158  0.72122  0.65610  Biso   1.000  H
  H21      1.0000 0.31842  0.22122  0.15610  Biso   1.000  H
  H22      1.0000 0.68158  0.77878  0.15610  Biso   1.000  H
  H23      1.0000 0.18158  0.72122  0.34390  Biso   1.000  H
  H24      1.0000 0.81842  0.27878  0.34390  Biso   1.000  H
  C49      1.0000 0.69690  0.92390  0.77790  Biso   1.000  C
  C50      1.0000 0.30310  0.07610  0.77790  Biso   1.000  C
  C51      1.0000 0.80310  0.42390  0.72210  Biso   1.000  C
  C52      1.0000 0.19690  0.57610  0.72210  Biso   1.000  C
  C53      1.0000 0.30310  0.07610  0.22210  Biso   1.000  C
  C54      1.0000 0.69690  0.92390  0.22210  Biso   1.000  C
  C55      1.0000 0.19690  0.57610  0.27790  Biso   1.000  C
  C56      1.0000 0.80310  0.42390  0.27790  Biso   1.000  C
  H25      1.0000 0.74337  0.96817  0.81560  Biso   1.000  H
  H26      1.0000 0.25663  0.03183  0.81560  Biso   1.000  H
  H27      1.0000 0.75663  0.46817  0.68440  Biso   1.000  H
  H28      1.0000 0.24337  0.53183  0.68440  Biso   1.000  H
  H29      1.0000 0.25663  0.03183  0.18440  Biso   1.000  H
  H30      1.0000 0.74337  0.96817  0.18440  Biso   1.000  H
  H31      1.0000 0.24337  0.53183  0.31560  Biso   1.000  H
  H32      1.0000 0.75663  0.46817  0.31560  Biso   1.000  H
  C57      1.0000 0.76820  0.62950  0.50000  Biso   1.000  C
  C58      1.0000 0.23180  0.37050  0.50000  Biso   1.000  C
  C59      1.0000 0.73180  0.12950  0.00000  Biso   1.000  C
  C60      1.0000 0.26820  0.87050  0.00000  Biso   1.000  C
  H33      1.0000 0.74507  0.55006  0.50000  Biso   1.000  H
  H34      1.0000 0.25493  0.44994  0.50000  Biso   1.000  H
  H35      1.0000 0.75493  0.05006  0.00000  Biso   1.000  H
  H36      1.0000 0.24507  0.94994  0.00000  Biso   1.000  H
  C61      1.0000 0.83830  0.85770  0.50000  Biso   1.000  C
  C62      1.0000 0.16170  0.14230  0.50000  Biso   1.000  C
  C63      1.0000 0.66170  0.35770  0.00000  Biso   1.000  C
  C64      1.0000 0.33830  0.64230  0.00000  Biso   1.000  C
  H37      1.0000 0.86014  0.93747  0.50000  Biso   1.000  H
  H38      1.0000 0.13986  0.06253  0.50000  Biso   1.000  H
  H39      1.0000 0.63986  0.43747  0.00000  Biso   1.000  H
  H40      1.0000 0.36014  0.56253  0.00000  Biso   1.000  H
  C65      1.0000 0.93660  0.77410  0.50000  Biso   1.000  C
  C66      1.0000 0.06340  0.22590  0.50000  Biso   1.000  C
  C67      1.0000 0.56340  0.27410  0.00000  Biso   1.000  C
  C68      1.0000 0.43660  0.72590  0.00000  Biso   1.000  C
  H41      1.0000 0.02595  0.79570  0.50000  Biso   1.000  H
  H42      1.0000 0.97405  0.20430  0.50000  Biso   1.000  H
  H43      1.0000 0.47405  0.29570  0.00000  Biso   1.000  H
  H44      1.0000 0.52595  0.70430  0.00000  Biso   1.000  H
  C69      1.0000 0.90010  0.65940  0.50000  Biso   1.000  C
  C70      1.0000 0.09990  0.34060  0.50000  Biso   1.000  C
  C71      1.0000 0.59990  0.15940  0.00000  Biso   1.000  C
  C72      1.0000 0.40010  0.84060  0.00000  Biso   1.000  C
  H45      1.0000 0.96484  0.60062  0.50000  Biso   1.000  H
  H46      1.0000 0.03516  0.39938  0.50000  Biso   1.000  H
  H47      1.0000 0.53516  0.10062  0.00000  Biso   1.000  H
  H48      1.0000 0.46484  0.89938  0.00000  Biso   1.000  H
