data_image0
_cell_length_a       9.465
_cell_length_b       14.559
_cell_length_c       17.362
_cell_angle_alpha    90
_cell_angle_beta     95.38
_cell_angle_gamma    90

_symmetry_space_group_name_H-M    "P 1"
_symmetry_int_tables_number       1

loop_
  _symmetry_equiv_pos_as_xyz
  'x, y, z'

loop_
  _atom_site_label
  _atom_site_occupancy
  _atom_site_fract_x
  _atom_site_fract_y
  _atom_site_fract_z
  _atom_site_thermal_displace_type
  _atom_site_B_iso_or_equiv
  _atom_site_type_symbol
  Cu1      1.0000 0.84631  0.64018  0.52252  Biso   1.000  Cu
  Cu2      1.0000 0.15369  0.14018  0.97748  Biso   1.000  Cu
  Cu3      1.0000 0.15369  0.35982  0.47748  Biso   1.000  Cu
  Cu4      1.0000 0.84631  0.85982  0.02252  Biso   1.000  Cu
  Cu5      1.0000 0.12645  0.58029  0.53308  Biso   1.000  Cu
  Cu6      1.0000 0.87355  0.08029  0.96692  Biso   1.000  Cu
  Cu7      1.0000 0.87355  0.41971  0.46692  Biso   1.000  Cu
  Cu8      1.0000 0.12645  0.91971  0.03308  Biso   1.000  Cu
  Cl1      1.0000 0.11648  0.50157  0.41978  Biso   1.000  Cl
  Cl2      1.0000 0.88352  0.00157  0.08022  Biso   1.000  Cl
  Cl3      1.0000 0.88352  0.49843  0.58022  Biso   1.000  Cl
  Cl4      1.0000 0.11648  0.99843  0.91978  Biso   1.000  Cl
  Cl5      1.0000 0.04102  0.74078  0.52888  Biso   1.000  Cl
  Cl6      1.0000 0.95898  0.24078  0.97112  Biso   1.000  Cl
  Cl7      1.0000 0.95898  0.25922  0.47112  Biso   1.000  Cl
  Cl8      1.0000 0.04102  0.75922  0.02888  Biso   1.000  Cl
  N1       1.0000 0.67408  0.72517  0.54264  Biso   1.000  N
  N2       1.0000 0.32592  0.22517  0.95736  Biso   1.000  N
  N3       1.0000 0.32592  0.27483  0.45736  Biso   1.000  N
  N4       1.0000 0.67408  0.77483  0.04264  Biso   1.000  N
  N5       1.0000 0.77025  0.63781  0.40692  Biso   1.000  N
  N6       1.0000 0.22975  0.13781  0.09308  Biso   1.000  N
  N7       1.0000 0.22975  0.36219  0.59308  Biso   1.000  N
  N8       1.0000 0.77025  0.86219  0.90692  Biso   1.000  N
  N9       1.0000 0.25585  0.59562  0.63186  Biso   1.000  N
  N10      1.0000 0.74415  0.09562  0.86814  Biso   1.000  N
  N11      1.0000 0.74415  0.40438  0.36814  Biso   1.000  N
  N12      1.0000 0.25585  0.90438  0.13186  Biso   1.000  N
  C1       1.0000 0.51980  0.59458  0.51393  Biso   1.000  C
  C2       1.0000 0.48020  0.09458  0.98607  Biso   1.000  C
  C3       1.0000 0.48020  0.40542  0.48607  Biso   1.000  C
  C4       1.0000 0.51980  0.90542  0.01393  Biso   1.000  C
  C5       1.0000 0.45118  0.53948  0.56546  Biso   1.000  C
  C6       1.0000 0.54882  0.03948  0.93454  Biso   1.000  C
  C7       1.0000 0.54882  0.46052  0.43454  Biso   1.000  C
  C8       1.0000 0.45118  0.96052  0.06546  Biso   1.000  C
  C9       1.0000 0.53952  0.69450  0.53071  Biso   1.000  C
  C10      1.0000 0.46048  0.19450  0.96929  Biso   1.000  C
  C11      1.0000 0.46048  0.30550  0.46929  Biso   1.000  C
  C12      1.0000 0.53952  0.80550  0.03071  Biso   1.000  C
  C13      1.0000 0.56836  0.55470  0.44805  Biso   1.000  C
  C14      1.0000 0.43164  0.05470  0.05195  Biso   1.000  C
  C15      1.0000 0.43164  0.44530  0.55195  Biso   1.000  C
  C16      1.0000 0.56836  0.94530  0.94805  Biso   1.000  C
  C17      1.0000 0.63567  0.61038  0.38885  Biso   1.000  C
  C18      1.0000 0.36433  0.11038  0.11115  Biso   1.000  C
  C19      1.0000 0.36433  0.38962  0.61115  Biso   1.000  C
  C20      1.0000 0.63567  0.88962  0.88885  Biso   1.000  C
  C21      1.0000 0.42312  0.75267  0.53570  Biso   1.000  C
  C22      1.0000 0.57688  0.25267  0.96430  Biso   1.000  C
  C23      1.0000 0.57688  0.24733  0.46430  Biso   1.000  C
  C24      1.0000 0.42312  0.74733  0.03570  Biso   1.000  C
  H1       1.0000 0.33113  0.73037  0.52584  Biso   1.000  H
  H2       1.0000 0.66887  0.23037  0.97416  Biso   1.000  H
  H3       1.0000 0.66887  0.26963  0.47416  Biso   1.000  H
  H4       1.0000 0.33113  0.76963  0.02584  Biso   1.000  H
  C25      1.0000 0.39630  0.58032  0.63552  Biso   1.000  C
  C26      1.0000 0.60370  0.08032  0.86448  Biso   1.000  C
  C27      1.0000 0.60370  0.41968  0.36448  Biso   1.000  C
  C28      1.0000 0.39630  0.91968  0.13552  Biso   1.000  C
  C29      1.0000 0.69446  0.81473  0.55953  Biso   1.000  C
  C30      1.0000 0.30554  0.31473  0.94047  Biso   1.000  C
  C31      1.0000 0.30554  0.18527  0.44047  Biso   1.000  C
  C32      1.0000 0.69446  0.68527  0.05953  Biso   1.000  C
  H5       1.0000 0.78724  0.83643  0.56579  Biso   1.000  H
  H6       1.0000 0.21276  0.33643  0.93421  Biso   1.000  H
  H7       1.0000 0.21276  0.16357  0.43421  Biso   1.000  H
  H8       1.0000 0.78724  0.66357  0.06579  Biso   1.000  H
  C33      1.0000 0.83385  0.68697  0.35504  Biso   1.000  C
  C34      1.0000 0.16615  0.18697  0.14496  Biso   1.000  C
  C35      1.0000 0.16615  0.31303  0.64496  Biso   1.000  C
  C36      1.0000 0.83385  0.81303  0.85504  Biso   1.000  C
  H9       1.0000 0.92732  0.70514  0.36775  Biso   1.000  H
  H10      1.0000 0.07268  0.20514  0.13225  Biso   1.000  H
  H11      1.0000 0.07268  0.29486  0.63225  Biso   1.000  H
  H12      1.0000 0.92732  0.79486  0.86775  Biso   1.000  H
  C37      1.0000 0.44665  0.84389  0.55552  Biso   1.000  C
  C38      1.0000 0.55335  0.34389  0.94448  Biso   1.000  C
  C39      1.0000 0.55335  0.15611  0.44448  Biso   1.000  C
  C40      1.0000 0.44665  0.65611  0.05552  Biso   1.000  C
  H13      1.0000 0.37038  0.88306  0.56038  Biso   1.000  H
  H14      1.0000 0.62962  0.38306  0.93962  Biso   1.000  H
  H15      1.0000 0.62962  0.11694  0.43962  Biso   1.000  H
  H16      1.0000 0.37038  0.61694  0.06038  Biso   1.000  H
  C41      1.0000 0.62935  0.68267  0.26459  Biso   1.000  C
  C42      1.0000 0.37065  0.18267  0.23541  Biso   1.000  C
  C43      1.0000 0.37065  0.31733  0.73541  Biso   1.000  C
  C44      1.0000 0.62935  0.81733  0.76459  Biso   1.000  C
  H17      1.0000 0.58173  0.69737  0.21688  Biso   1.000  H
  H18      1.0000 0.41827  0.19737  0.28312  Biso   1.000  H
  H19      1.0000 0.41827  0.30263  0.78312  Biso   1.000  H
  H20      1.0000 0.58173  0.80263  0.71688  Biso   1.000  H
  C45      1.0000 0.43018  0.63681  0.76537  Biso   1.000  C
  C46      1.0000 0.56982  0.13681  0.73463  Biso   1.000  C
  C47      1.0000 0.56982  0.36319  0.23463  Biso   1.000  C
  C48      1.0000 0.43018  0.86319  0.26537  Biso   1.000  C
  H21      1.0000 0.48914  0.64933  0.81003  Biso   1.000  H
  H22      1.0000 0.51086  0.14933  0.68997  Biso   1.000  H
  H23      1.0000 0.51086  0.35067  0.18997  Biso   1.000  H
  H24      1.0000 0.48914  0.85067  0.31003  Biso   1.000  H
  C49      1.0000 0.76818  0.71255  0.28300  Biso   1.000  C
  C50      1.0000 0.23182  0.21255  0.21700  Biso   1.000  C
  C51      1.0000 0.23182  0.28745  0.71700  Biso   1.000  C
  C52      1.0000 0.76818  0.78745  0.78300  Biso   1.000  C
  C53      1.0000 0.56203  0.63084  0.31760  Biso   1.000  C
  C54      1.0000 0.43797  0.13084  0.18240  Biso   1.000  C
  C55      1.0000 0.43797  0.36916  0.68240  Biso   1.000  C
  C56      1.0000 0.56203  0.86916  0.81760  Biso   1.000  C
  H25      1.0000 0.46957  0.61020  0.30574  Biso   1.000  H
  H26      1.0000 0.53043  0.11020  0.19426  Biso   1.000  H
  H27      1.0000 0.53043  0.38980  0.69426  Biso   1.000  H
  H28      1.0000 0.46957  0.88980  0.80574  Biso   1.000  H
  C57      1.0000 0.58550  0.87675  0.56818  Biso   1.000  C
  C58      1.0000 0.41450  0.37675  0.93182  Biso   1.000  C
  C59      1.0000 0.41450  0.12325  0.43182  Biso   1.000  C
  C60      1.0000 0.58550  0.62325  0.06818  Biso   1.000  C
  C61      1.0000 0.48597  0.59935  0.70129  Biso   1.000  C
  C62      1.0000 0.51403  0.09935  0.79871  Biso   1.000  C
  C63      1.0000 0.51403  0.40065  0.29871  Biso   1.000  C
  C64      1.0000 0.48597  0.90065  0.20129  Biso   1.000  C
  H29      1.0000 0.58260  0.58714  0.70247  Biso   1.000  H
  H30      1.0000 0.41740  0.08714  0.79753  Biso   1.000  H
  H31      1.0000 0.41740  0.41286  0.29753  Biso   1.000  H
  H32      1.0000 0.58260  0.91286  0.20247  Biso   1.000  H
  C65      1.0000 0.28593  0.65553  0.76256  Biso   1.000  C
  C66      1.0000 0.71407  0.15553  0.73744  Biso   1.000  C
  C67      1.0000 0.71407  0.34447  0.23744  Biso   1.000  C
  C68      1.0000 0.28593  0.84447  0.26256  Biso   1.000  C
  C69      1.0000 0.20345  0.63288  0.69417  Biso   1.000  C
  C70      1.0000 0.79655  0.13288  0.80583  Biso   1.000  C
  C71      1.0000 0.79655  0.36712  0.30583  Biso   1.000  C
  C72      1.0000 0.20345  0.86712  0.19417  Biso   1.000  C
  H33      1.0000 0.10644  0.64427  0.69158  Biso   1.000  H
  H34      1.0000 0.89356  0.14427  0.80842  Biso   1.000  H
  H35      1.0000 0.89356  0.35573  0.30842  Biso   1.000  H
  H36      1.0000 0.10644  0.85573  0.19158  Biso   1.000  H
  C73      1.0000 0.84500  0.77277  0.23025  Biso   1.000  C
  C74      1.0000 0.15500  0.27277  0.26975  Biso   1.000  C
  C75      1.0000 0.15500  0.22723  0.76975  Biso   1.000  C
  C76      1.0000 0.84500  0.72723  0.73025  Biso   1.000  C
  H37      1.0000 0.89166  0.82172  0.25967  Biso   1.000  H
  H38      1.0000 0.10834  0.32172  0.24033  Biso   1.000  H
  H39      1.0000 0.10834  0.17828  0.74033  Biso   1.000  H
  H40      1.0000 0.89166  0.67828  0.75967  Biso   1.000  H
  H41      1.0000 0.77814  0.79808  0.19090  Biso   1.000  H
  H42      1.0000 0.22186  0.29808  0.30910  Biso   1.000  H
  H43      1.0000 0.22186  0.20192  0.80910  Biso   1.000  H
  H44      1.0000 0.77814  0.70192  0.69090  Biso   1.000  H
  H45      1.0000 0.91417  0.73696  0.20649  Biso   1.000  H
  H46      1.0000 0.08583  0.23696  0.29351  Biso   1.000  H
  H47      1.0000 0.08583  0.26304  0.79351  Biso   1.000  H
  H48      1.0000 0.91417  0.76304  0.70649  Biso   1.000  H
  C77      1.0000 0.61730  0.97363  0.59413  Biso   1.000  C
  C78      1.0000 0.38270  0.47363  0.90587  Biso   1.000  C
  C79      1.0000 0.38270  0.02637  0.40587  Biso   1.000  C
  C80      1.0000 0.61730  0.52637  0.09413  Biso   1.000  C
  H49      1.0000 0.62980  0.97574  0.64962  Biso   1.000  H
  H50      1.0000 0.37020  0.47574  0.85038  Biso   1.000  H
  H51      1.0000 0.37020  0.02426  0.35038  Biso   1.000  H
  H52      1.0000 0.62980  0.52426  0.14962  Biso   1.000  H
  H53      1.0000 0.53983  0.01284  0.57573  Biso   1.000  H
  H54      1.0000 0.46017  0.51284  0.92427  Biso   1.000  H
  H55      1.0000 0.46017  0.98716  0.42427  Biso   1.000  H
  H56      1.0000 0.53983  0.48716  0.07573  Biso   1.000  H
  H57      1.0000 0.70254  0.99420  0.57362  Biso   1.000  H
  H58      1.0000 0.29746  0.49420  0.92638  Biso   1.000  H
  H59      1.0000 0.29746  0.00580  0.42638  Biso   1.000  H
  H60      1.0000 0.70254  0.50580  0.07362  Biso   1.000  H
  C81      1.0000 0.22190  0.69825  0.83007  Biso   1.000  C
  C82      1.0000 0.77810  0.19825  0.66993  Biso   1.000  C
  C83      1.0000 0.77810  0.30175  0.16993  Biso   1.000  C
  C84      1.0000 0.22190  0.80175  0.33007  Biso   1.000  C
  H61      1.0000 0.28681  0.69248  0.87571  Biso   1.000  H
  H62      1.0000 0.71319  0.19248  0.62429  Biso   1.000  H
  H63      1.0000 0.71319  0.30752  0.12429  Biso   1.000  H
  H64      1.0000 0.28681  0.80752  0.37571  Biso   1.000  H
  H65      1.0000 0.13469  0.66748  0.83799  Biso   1.000  H
  H66      1.0000 0.86531  0.16748  0.66201  Biso   1.000  H
  H67      1.0000 0.86531  0.33252  0.16201  Biso   1.000  H
  H68      1.0000 0.13469  0.83252  0.33799  Biso   1.000  H
  H69      1.0000 0.20318  0.76207  0.81960  Biso   1.000  H
  H70      1.0000 0.79682  0.26207  0.68040  Biso   1.000  H
  H71      1.0000 0.79682  0.23793  0.18040  Biso   1.000  H
  H72      1.0000 0.20318  0.73793  0.31960  Biso   1.000  H
  O1       1.0000 0.72960  0.50263  0.82888  Biso   1.000  O
  O2       1.0000 0.27040  0.00263  0.67112  Biso   1.000  O
  O3       1.0000 0.27040  0.49737  0.17112  Biso   1.000  O
  O4       1.0000 0.72960  0.99737  0.32888  Biso   1.000  O
  C85      1.0000 0.96660  0.46814  0.81514  Biso   1.000  C
  C86      1.0000 0.03340  0.96814  0.68486  Biso   1.000  C
  C87      1.0000 0.03340  0.53186  0.18486  Biso   1.000  C
  C88      1.0000 0.96660  0.03186  0.31514  Biso   1.000  C
  H73      1.0000 0.99556  0.51798  0.78304  Biso   1.000  H
  H74      1.0000 0.00444  0.01798  0.71696  Biso   1.000  H
  H75      1.0000 0.00444  0.48202  0.21696  Biso   1.000  H
  H76      1.0000 0.99556  0.98202  0.28304  Biso   1.000  H
  H77      1.0000 0.03222  0.41727  0.81277  Biso   1.000  H
  H78      1.0000 0.96778  0.91727  0.68723  Biso   1.000  H
  H79      1.0000 0.96778  0.58273  0.18723  Biso   1.000  H
  H80      1.0000 0.03222  0.08273  0.31277  Biso   1.000  H
  C89      1.0000 0.81670  0.43900  0.79150  Biso   1.000  C
  C90      1.0000 0.18330  0.93900  0.70850  Biso   1.000  C
  C91      1.0000 0.18330  0.56100  0.20850  Biso   1.000  C
  C92      1.0000 0.81670  0.06100  0.29150  Biso   1.000  C
  H81      1.0000 0.79637  0.44203  0.73574  Biso   1.000  H
  H82      1.0000 0.20363  0.94203  0.76426  Biso   1.000  H
  H83      1.0000 0.20363  0.55797  0.26426  Biso   1.000  H
  H84      1.0000 0.79637  0.05797  0.23574  Biso   1.000  H
  H85      1.0000 0.80049  0.37668  0.80839  Biso   1.000  H
  H86      1.0000 0.19951  0.87668  0.69161  Biso   1.000  H
  H87      1.0000 0.19951  0.62332  0.19161  Biso   1.000  H
  H88      1.0000 0.80049  0.12332  0.30839  Biso   1.000  H
  C93      1.0000 0.81280  0.54421  0.89247  Biso   1.000  C
  C94      1.0000 0.18720  0.04421  0.60753  Biso   1.000  C
  C95      1.0000 0.18720  0.45579  0.10753  Biso   1.000  C
  C96      1.0000 0.81280  0.95579  0.39247  Biso   1.000  C
  H89      1.0000 0.76863  0.53470  0.94005  Biso   1.000  H
  H90      1.0000 0.23137  0.03470  0.55995  Biso   1.000  H
  H91      1.0000 0.23137  0.46530  0.05995  Biso   1.000  H
  H92      1.0000 0.76863  0.96530  0.44005  Biso   1.000  H
  H93      1.0000 0.82139  0.60974  0.88400  Biso   1.000  H
  H94      1.0000 0.17861  0.10974  0.61600  Biso   1.000  H
  H95      1.0000 0.17861  0.39026  0.11600  Biso   1.000  H
  H96      1.0000 0.82139  0.89026  0.38400  Biso   1.000  H
  C97      1.0000 0.95670  0.49920  0.89754  Biso   1.000  C
  C98      1.0000 0.04330  0.99920  0.60246  Biso   1.000  C
  C99      1.0000 0.04330  0.50080  0.10246  Biso   1.000  C
  C100     1.0000 0.95670  0.00080  0.39754  Biso   1.000  C
  H97      1.0000 0.96172  0.44758  0.93296  Biso   1.000  H
  H98      1.0000 0.03828  0.94758  0.56704  Biso   1.000  H
  H99      1.0000 0.03828  0.55242  0.06704  Biso   1.000  H
  H100     1.0000 0.96172  0.05242  0.43296  Biso   1.000  H
  H101     1.0000 0.03137  0.54265  0.91387  Biso   1.000  H
  H102     1.0000 0.96863  0.04265  0.58613  Biso   1.000  H
  H103     1.0000 0.96863  0.45735  0.08613  Biso   1.000  H
  H104     1.0000 0.03137  0.95735  0.41387  Biso   1.000  H
