data_image0
_cell_length_a       11.435
_cell_length_b       24.695
_cell_length_c       17.511
_cell_angle_alpha    90
_cell_angle_beta     108.053
_cell_angle_gamma    90

_symmetry_space_group_name_H-M    "P 1"
_symmetry_int_tables_number       1

loop_
  _symmetry_equiv_pos_as_xyz
  'x, y, z'

loop_
  _atom_site_label
  _atom_site_occupancy
  _atom_site_fract_x
  _atom_site_fract_y
  _atom_site_fract_z
  _atom_site_thermal_displace_type
  _atom_site_B_iso_or_equiv
  _atom_site_type_symbol
  Cu1      1.0000 0.55656  0.16232  0.51202  Biso   1.000  Cu
  Cu2      1.0000 0.44344  0.66232  0.98798  Biso   1.000  Cu
  Cu3      1.0000 0.44344  0.83768  0.48798  Biso   1.000  Cu
  Cu4      1.0000 0.55656  0.33768  0.01202  Biso   1.000  Cu
  Cu5      1.0000 0.39502  0.13313  0.59120  Biso   1.000  Cu
  Cu6      1.0000 0.60498  0.63313  0.90880  Biso   1.000  Cu
  Cu7      1.0000 0.60498  0.86687  0.40880  Biso   1.000  Cu
  Cu8      1.0000 0.39502  0.36687  0.09120  Biso   1.000  Cu
  Cu9      1.0000 0.57262  0.35544  0.85156  Biso   1.000  Cu
  Cu10     1.0000 0.42738  0.85544  0.64844  Biso   1.000  Cu
  Cu11     1.0000 0.42738  0.64456  0.14844  Biso   1.000  Cu
  Cu12     1.0000 0.57262  0.14456  0.35156  Biso   1.000  Cu
  Cu13     1.0000 0.75449  0.38963  0.78521  Biso   1.000  Cu
  Cu14     1.0000 0.24551  0.88963  0.71479  Biso   1.000  Cu
  Cu15     1.0000 0.24551  0.61037  0.21479  Biso   1.000  Cu
  Cu16     1.0000 0.75449  0.11037  0.28521  Biso   1.000  Cu
  Cl1      1.0000 0.55762  0.41933  0.94465  Biso   1.000  Cl
  Cl2      1.0000 0.44238  0.91933  0.55535  Biso   1.000  Cl
  Cl3      1.0000 0.44238  0.58067  0.05535  Biso   1.000  Cl
  Cl4      1.0000 0.55762  0.08067  0.44465  Biso   1.000  Cl
  Cl5      1.0000 0.38517  0.20987  0.50502  Biso   1.000  Cl
  Cl6      1.0000 0.61483  0.70987  0.99498  Biso   1.000  Cl
  Cl7      1.0000 0.61483  0.79013  0.49498  Biso   1.000  Cl
  Cl8      1.0000 0.38517  0.29013  0.00502  Biso   1.000  Cl
  Cl9      1.0000 0.75043  0.31138  0.85862  Biso   1.000  Cl
  Cl10     1.0000 0.24957  0.81138  0.64138  Biso   1.000  Cl
  Cl11     1.0000 0.24957  0.68862  0.14138  Biso   1.000  Cl
  Cl12     1.0000 0.75043  0.18862  0.35862  Biso   1.000  Cl
  Cl13     1.0000 0.85591  0.46826  0.83036  Biso   1.000  Cl
  Cl14     1.0000 0.14409  0.96826  0.66964  Biso   1.000  Cl
  Cl15     1.0000 0.14409  0.53174  0.16964  Biso   1.000  Cl
  Cl16     1.0000 0.85591  0.03174  0.33036  Biso   1.000  Cl
  N1       1.0000 0.39410  0.33341  0.79548  Biso   1.000  N
  N2       1.0000 0.60590  0.83341  0.70452  Biso   1.000  N
  N3       1.0000 0.60590  0.66659  0.20452  Biso   1.000  N
  N4       1.0000 0.39410  0.16659  0.29548  Biso   1.000  N
  N5       1.0000 0.73310  0.18065  0.57336  Biso   1.000  N
  N6       1.0000 0.26690  0.68065  0.92664  Biso   1.000  N
  N7       1.0000 0.26690  0.81935  0.42664  Biso   1.000  N
  N8       1.0000 0.73310  0.31935  0.07336  Biso   1.000  N
  N9       1.0000 0.57190  0.11025  0.65889  Biso   1.000  N
  N10      1.0000 0.42810  0.61025  0.84111  Biso   1.000  N
  N11      1.0000 0.42810  0.88975  0.34111  Biso   1.000  N
  N12      1.0000 0.57190  0.38975  0.15889  Biso   1.000  N
  N13      1.0000 0.36010  0.14980  0.69988  Biso   1.000  N
  N14      1.0000 0.63990  0.64980  0.80012  Biso   1.000  N
  N15      1.0000 0.63990  0.85020  0.30012  Biso   1.000  N
  N16      1.0000 0.36010  0.35020  0.19988  Biso   1.000  N
  N17      1.0000 0.77460  0.37382  0.66818  Biso   1.000  N
  N18      1.0000 0.22540  0.87382  0.83182  Biso   1.000  N
  N19      1.0000 0.22540  0.62618  0.33182  Biso   1.000  N
  N20      1.0000 0.77460  0.12618  0.16818  Biso   1.000  N
  N21      1.0000 0.29410  0.07301  0.53352  Biso   1.000  N
  N22      1.0000 0.70590  0.57301  0.96648  Biso   1.000  N
  N23      1.0000 0.70590  0.92699  0.46648  Biso   1.000  N
  N24      1.0000 0.29410  0.42699  0.03352  Biso   1.000  N
  C1       1.0000 0.50560  0.37589  0.65600  Biso   1.000  C
  C2       1.0000 0.49440  0.87589  0.84400  Biso   1.000  C
  C3       1.0000 0.49440  0.62411  0.34400  Biso   1.000  C
  C4       1.0000 0.50560  0.12411  0.15600  Biso   1.000  C
  C5       1.0000 0.76880  0.21490  0.63693  Biso   1.000  C
  C6       1.0000 0.23120  0.71490  0.86307  Biso   1.000  C
  C7       1.0000 0.23120  0.78510  0.36307  Biso   1.000  C
  C8       1.0000 0.76880  0.28510  0.13693  Biso   1.000  C
  C9       1.0000 0.46850  0.28256  0.70240  Biso   1.000  C
  C10      1.0000 0.53150  0.78256  0.79760  Biso   1.000  C
  C11      1.0000 0.53150  0.71744  0.29760  Biso   1.000  C
  C12      1.0000 0.46850  0.21744  0.20240  Biso   1.000  C
  C13      1.0000 0.49750  0.22694  0.71444  Biso   1.000  C
  C14      1.0000 0.50250  0.72694  0.78556  Biso   1.000  C
  C15      1.0000 0.50250  0.77306  0.28556  Biso   1.000  C
  C16      1.0000 0.49750  0.27306  0.21444  Biso   1.000  C
  C17      1.0000 0.66720  0.24026  0.66175  Biso   1.000  C
  C18      1.0000 0.33280  0.74026  0.83825  Biso   1.000  C
  C19      1.0000 0.33280  0.75974  0.33825  Biso   1.000  C
  C20      1.0000 0.66720  0.25974  0.16175  Biso   1.000  C
  C21      1.0000 0.59700  0.20615  0.69483  Biso   1.000  C
  C22      1.0000 0.40300  0.70615  0.80517  Biso   1.000  C
  C23      1.0000 0.40300  0.79385  0.30517  Biso   1.000  C
  C24      1.0000 0.59700  0.29385  0.19483  Biso   1.000  C
  N25      1.0000 0.55670  0.41113  0.71470  Biso   1.000  N
  N26      1.0000 0.44330  0.91113  0.78530  Biso   1.000  N
  N27      1.0000 0.44330  0.58887  0.28530  Biso   1.000  N
  N28      1.0000 0.55670  0.08887  0.21470  Biso   1.000  N
  C25      1.0000 0.54100  0.31690  0.67121  Biso   1.000  C
  C26      1.0000 0.45900  0.81690  0.82879  Biso   1.000  C
  C27      1.0000 0.45900  0.68310  0.32879  Biso   1.000  C
  C28      1.0000 0.54100  0.18310  0.17121  Biso   1.000  C
  C29      1.0000 0.30360  0.35100  0.82210  Biso   1.000  C
  C30      1.0000 0.69640  0.85100  0.67790  Biso   1.000  C
  C31      1.0000 0.69640  0.64900  0.17790  Biso   1.000  C
  C32      1.0000 0.30360  0.14900  0.32210  Biso   1.000  C
  H1       1.0000 0.32543  0.36953  0.87211  Biso   1.000  H
  H2       1.0000 0.67457  0.86953  0.62789  Biso   1.000  H
  H3       1.0000 0.67457  0.63047  0.12789  Biso   1.000  H
  H4       1.0000 0.32543  0.13047  0.37211  Biso   1.000  H
  C33      1.0000 0.36370  0.30577  0.72510  Biso   1.000  C
  C34      1.0000 0.63630  0.80577  0.77490  Biso   1.000  C
  C35      1.0000 0.63630  0.69423  0.27490  Biso   1.000  C
  C36      1.0000 0.36370  0.19423  0.22510  Biso   1.000  C
  C37      1.0000 0.41960  0.19077  0.74830  Biso   1.000  C
  C38      1.0000 0.58040  0.69077  0.75170  Biso   1.000  C
  C39      1.0000 0.58040  0.80923  0.25170  Biso   1.000  C
  C40      1.0000 0.41960  0.30923  0.24830  Biso   1.000  C
  C41      1.0000 0.82180  0.15554  0.55050  Biso   1.000  C
  C42      1.0000 0.17820  0.65554  0.94950  Biso   1.000  C
  C43      1.0000 0.17820  0.84446  0.44950  Biso   1.000  C
  C44      1.0000 0.82180  0.34446  0.05050  Biso   1.000  C
  H5       1.0000 0.79691  0.13217  0.50528  Biso   1.000  H
  H6       1.0000 0.20309  0.63217  0.99472  Biso   1.000  H
  H7       1.0000 0.20309  0.86783  0.49472  Biso   1.000  H
  H8       1.0000 0.79691  0.36783  0.00528  Biso   1.000  H
  C45      1.0000 0.64020  0.29594  0.65154  Biso   1.000  C
  C46      1.0000 0.35980  0.79594  0.84846  Biso   1.000  C
  C47      1.0000 0.35980  0.70406  0.34846  Biso   1.000  C
  C48      1.0000 0.64020  0.20406  0.15154  Biso   1.000  C
  C49      1.0000 0.18020  0.34401  0.78170  Biso   1.000  C
  C50      1.0000 0.81980  0.84401  0.71830  Biso   1.000  C
  C51      1.0000 0.81980  0.65599  0.21830  Biso   1.000  C
  C52      1.0000 0.18020  0.15599  0.28170  Biso   1.000  C
  C53      1.0000 0.63850  0.14795  0.71064  Biso   1.000  C
  C54      1.0000 0.36150  0.64795  0.78936  Biso   1.000  C
  C55      1.0000 0.36150  0.85205  0.28936  Biso   1.000  C
  C56      1.0000 0.63850  0.35205  0.21064  Biso   1.000  C
  C57      1.0000 0.71800  0.33304  0.61900  Biso   1.000  C
  C58      1.0000 0.28200  0.83304  0.88100  Biso   1.000  C
  C59      1.0000 0.28200  0.66696  0.38100  Biso   1.000  C
  C60      1.0000 0.71800  0.16696  0.11900  Biso   1.000  C
  C61      1.0000 0.40880  0.19866  0.82450  Biso   1.000  C
  C62      1.0000 0.59120  0.69866  0.67550  Biso   1.000  C
  C63      1.0000 0.59120  0.80134  0.17550  Biso   1.000  C
  C64      1.0000 0.40880  0.30134  0.32450  Biso   1.000  C
  H9       1.0000 0.45152  0.22736  0.85771  Biso   1.000  H
  H10      1.0000 0.54848  0.72736  0.64229  Biso   1.000  H
  H11      1.0000 0.54848  0.77264  0.14229  Biso   1.000  H
  H12      1.0000 0.45152  0.27264  0.35771  Biso   1.000  H
  C65      1.0000 0.89170  0.22385  0.67790  Biso   1.000  C
  C66      1.0000 0.10830  0.72385  0.82210  Biso   1.000  C
  C67      1.0000 0.10830  0.77615  0.32210  Biso   1.000  C
  C68      1.0000 0.89170  0.27615  0.17790  Biso   1.000  C
  H13      1.0000 0.91505  0.24829  0.72196  Biso   1.000  H
  H14      1.0000 0.08495  0.74829  0.77804  Biso   1.000  H
  H15      1.0000 0.08495  0.75171  0.27804  Biso   1.000  H
  H16      1.0000 0.91505  0.25171  0.22196  Biso   1.000  H
  C69      1.0000 0.94600  0.16157  0.58850  Biso   1.000  C
  C70      1.0000 0.05400  0.66157  0.91150  Biso   1.000  C
  C71      1.0000 0.05400  0.83843  0.41150  Biso   1.000  C
  C72      1.0000 0.94600  0.33843  0.08850  Biso   1.000  C
  C73      1.0000 0.74470  0.13520  0.77100  Biso   1.000  C
  C74      1.0000 0.25530  0.63520  0.72900  Biso   1.000  C
  C75      1.0000 0.25530  0.86480  0.22900  Biso   1.000  C
  C76      1.0000 0.74470  0.36480  0.27100  Biso   1.000  C
  H17      1.0000 0.78890  0.16231  0.80690  Biso   1.000  H
  H18      1.0000 0.21110  0.66231  0.69310  Biso   1.000  H
  H19      1.0000 0.21110  0.83769  0.19310  Biso   1.000  H
  H20      1.0000 0.78890  0.33769  0.30690  Biso   1.000  H
  C77      1.0000 0.15100  0.31858  0.70720  Biso   1.000  C
  C78      1.0000 0.84900  0.81858  0.79280  Biso   1.000  C
  C79      1.0000 0.84900  0.68142  0.29280  Biso   1.000  C
  C80      1.0000 0.15100  0.18142  0.20720  Biso   1.000  C
  H21      1.0000 0.06740  0.31501  0.67541  Biso   1.000  H
  H22      1.0000 0.93260  0.81501  0.82459  Biso   1.000  H
  H23      1.0000 0.93260  0.68499  0.32459  Biso   1.000  H
  H24      1.0000 0.06740  0.18499  0.17541  Biso   1.000  H
  C81      1.0000 0.24250  0.29860  0.67940  Biso   1.000  C
  C82      1.0000 0.75750  0.79860  0.82060  Biso   1.000  C
  C83      1.0000 0.75750  0.70140  0.32060  Biso   1.000  C
  C84      1.0000 0.24250  0.20140  0.17940  Biso   1.000  C
  H25      1.0000 0.22250  0.28010  0.62946  Biso   1.000  H
  H26      1.0000 0.77750  0.78010  0.87054  Biso   1.000  H
  H27      1.0000 0.77750  0.71990  0.37054  Biso   1.000  H
  H28      1.0000 0.22250  0.21990  0.12946  Biso   1.000  H
  C85      1.0000 0.72810  0.32682  0.54270  Biso   1.000  C
  C86      1.0000 0.27190  0.82682  0.95730  Biso   1.000  C
  C87      1.0000 0.27190  0.67318  0.45730  Biso   1.000  C
  C88      1.0000 0.72810  0.17318  0.04270  Biso   1.000  C
  H29      1.0000 0.68776  0.29783  0.50918  Biso   1.000  H
  H30      1.0000 0.31224  0.79783  0.99082  Biso   1.000  H
  H31      1.0000 0.31224  0.70217  0.49082  Biso   1.000  H
  H32      1.0000 0.68776  0.20217  0.00918  Biso   1.000  H
  C89      1.0000 0.23670  0.03637  0.50390  Biso   1.000  C
  C90      1.0000 0.76330  0.53637  0.99610  Biso   1.000  C
  C91      1.0000 0.76330  0.96363  0.49610  Biso   1.000  C
  C92      1.0000 0.23670  0.46363  0.00390  Biso   1.000  C
  C93      1.0000 0.98000  0.19676  0.65390  Biso   1.000  C
  C94      1.0000 0.02000  0.69676  0.84610  Biso   1.000  C
  C95      1.0000 0.02000  0.80324  0.34610  Biso   1.000  C
  C96      1.0000 0.98000  0.30324  0.15390  Biso   1.000  C
  H33      1.0000 0.06460  0.20214  0.68227  Biso   1.000  H
  H34      1.0000 0.93540  0.70214  0.81773  Biso   1.000  H
  H35      1.0000 0.93540  0.79786  0.31773  Biso   1.000  H
  H36      1.0000 0.06460  0.29786  0.18227  Biso   1.000  H
  C97      1.0000 0.61380  0.05797  0.66790  Biso   1.000  C
  C98      1.0000 0.38620  0.55797  0.83210  Biso   1.000  C
  C99      1.0000 0.38620  0.94203  0.33210  Biso   1.000  C
  C100     1.0000 0.61380  0.44203  0.16790  Biso   1.000  C
  H37      1.0000 0.56729  0.03134  0.63203  Biso   1.000  H
  H38      1.0000 0.43271  0.53134  0.86797  Biso   1.000  H
  H39      1.0000 0.43271  0.96866  0.36797  Biso   1.000  H
  H40      1.0000 0.56729  0.46866  0.13203  Biso   1.000  H
  C101     1.0000 0.29210  0.11528  0.72820  Biso   1.000  C
  C102     1.0000 0.70790  0.61528  0.77180  Biso   1.000  C
  C103     1.0000 0.70790  0.88472  0.27180  Biso   1.000  C
  C104     1.0000 0.29210  0.38472  0.22820  Biso   1.000  C
  H41      1.0000 0.25304  0.08590  0.69506  Biso   1.000  H
  H42      1.0000 0.74696  0.58590  0.80494  Biso   1.000  H
  H43      1.0000 0.74696  0.91410  0.30494  Biso   1.000  H
  H44      1.0000 0.25304  0.41410  0.19506  Biso   1.000  H
  C105     1.0000 0.83960  0.40959  0.64090  Biso   1.000  C
  C106     1.0000 0.16040  0.90959  0.85910  Biso   1.000  C
  C107     1.0000 0.16040  0.59041  0.35910  Biso   1.000  C
  C108     1.0000 0.83960  0.09041  0.14090  Biso   1.000  C
  H45      1.0000 0.87674  0.43884  0.67504  Biso   1.000  H
  H46      1.0000 0.12326  0.93884  0.82496  Biso   1.000  H
  H47      1.0000 0.12326  0.56116  0.32496  Biso   1.000  H
  H48      1.0000 0.87674  0.06116  0.17504  Biso   1.000  H
  C109     1.0000 0.45680  0.48542  0.63190  Biso   1.000  C
  C110     1.0000 0.54320  0.98542  0.86810  Biso   1.000  C
  C111     1.0000 0.54320  0.51458  0.36810  Biso   1.000  C
  C112     1.0000 0.45680  0.01458  0.13190  Biso   1.000  C
  C113     1.0000 0.79830  0.36368  0.51630  Biso   1.000  C
  C114     1.0000 0.20170  0.86368  0.98370  Biso   1.000  C
  C115     1.0000 0.20170  0.63632  0.48370  Biso   1.000  C
  C116     1.0000 0.79830  0.13632  0.01630  Biso   1.000  C
  H49      1.0000 0.80716  0.35975  0.46439  Biso   1.000  H
  H50      1.0000 0.19284  0.85975  0.03561  Biso   1.000  H
  H51      1.0000 0.19284  0.64025  0.53561  Biso   1.000  H
  H52      1.0000 0.80716  0.14025  0.96439  Biso   1.000  H
  C117     1.0000 0.16050  0.99034  0.46830  Biso   1.000  C
  C118     1.0000 0.83950  0.49034  0.03170  Biso   1.000  C
  C119     1.0000 0.83950  0.00966  0.53170  Biso   1.000  C
  C120     1.0000 0.16050  0.50966  0.96830  Biso   1.000  C
  H53      1.0000 0.08365  0.00319  0.42982  Biso   1.000  H
  H54      1.0000 0.91635  0.50319  0.07018  Biso   1.000  H
  H55      1.0000 0.91635  0.99681  0.57018  Biso   1.000  H
  H56      1.0000 0.08365  0.49681  0.92982  Biso   1.000  H
  H57      1.0000 0.14203  0.96922  0.51051  Biso   1.000  H
  H58      1.0000 0.85797  0.46922  0.98949  Biso   1.000  H
  H59      1.0000 0.85797  0.03078  0.48949  Biso   1.000  H
  H60      1.0000 0.14203  0.53078  0.01051  Biso   1.000  H
  H61      1.0000 0.20446  0.96750  0.44042  Biso   1.000  H
  H62      1.0000 0.79554  0.46750  0.05958  Biso   1.000  H
  H63      1.0000 0.79554  0.03250  0.55958  Biso   1.000  H
  H64      1.0000 0.20446  0.53250  0.94042  Biso   1.000  H
  C121     1.0000 0.27600  0.12036  0.80350  Biso   1.000  C
  C122     1.0000 0.72400  0.62036  0.69650  Biso   1.000  C
  C123     1.0000 0.72400  0.87964  0.19650  Biso   1.000  C
  C124     1.0000 0.27600  0.37964  0.30350  Biso   1.000  C
  C125     1.0000 0.33480  0.16392  0.85090  Biso   1.000  C
  C126     1.0000 0.66520  0.66392  0.64910  Biso   1.000  C
  C127     1.0000 0.66520  0.83608  0.14910  Biso   1.000  C
  C128     1.0000 0.33480  0.33608  0.35090  Biso   1.000  C
  H65      1.0000 0.32367  0.16972  0.90187  Biso   1.000  H
  H66      1.0000 0.67633  0.66972  0.59813  Biso   1.000  H
  H67      1.0000 0.67633  0.83028  0.09813  Biso   1.000  H
  H68      1.0000 0.32367  0.33028  0.40187  Biso   1.000  H
  C129     1.0000 0.08410  0.36450  0.81740  Biso   1.000  C
  C130     1.0000 0.91590  0.86450  0.68260  Biso   1.000  C
  C131     1.0000 0.91590  0.63550  0.18260  Biso   1.000  C
  C132     1.0000 0.08410  0.13550  0.31740  Biso   1.000  C
  H69      1.0000 0.11953  0.36660  0.87591  Biso   1.000  H
  H70      1.0000 0.88047  0.86660  0.62409  Biso   1.000  H
  H71      1.0000 0.88047  0.63340  0.12409  Biso   1.000  H
  H72      1.0000 0.11953  0.13340  0.37591  Biso   1.000  H
  H73      1.0000 0.01387  0.33966  0.80349  Biso   1.000  H
  H74      1.0000 0.98613  0.83966  0.69651  Biso   1.000  H
  H75      1.0000 0.98613  0.66034  0.19651  Biso   1.000  H
  H76      1.0000 0.01387  0.16034  0.30349  Biso   1.000  H
  H77      1.0000 0.05668  0.40057  0.79586  Biso   1.000  H
  H78      1.0000 0.94332  0.90057  0.70414  Biso   1.000  H
  H79      1.0000 0.94332  0.59943  0.20414  Biso   1.000  H
  H80      1.0000 0.05668  0.09943  0.29586  Biso   1.000  H
  C133     1.0000 0.71950  0.04189  0.72590  Biso   1.000  C
  C134     1.0000 0.28050  0.54189  0.77410  Biso   1.000  C
  C135     1.0000 0.28050  0.95811  0.27410  Biso   1.000  C
  C136     1.0000 0.71950  0.45811  0.22590  Biso   1.000  C
  C137     1.0000 0.78680  0.08116  0.77850  Biso   1.000  C
  C138     1.0000 0.21320  0.58116  0.72150  Biso   1.000  C
  C139     1.0000 0.21320  0.91884  0.22150  Biso   1.000  C
  C140     1.0000 0.78680  0.41884  0.27850  Biso   1.000  C
  H81      1.0000 0.86057  0.07160  0.81912  Biso   1.000  H
  H82      1.0000 0.13943  0.57160  0.68088  Biso   1.000  H
  H83      1.0000 0.13943  0.92840  0.18088  Biso   1.000  H
  H84      1.0000 0.86057  0.42840  0.31912  Biso   1.000  H
  C141     1.0000 0.85640  0.40678  0.56570  Biso   1.000  C
  C142     1.0000 0.14360  0.90678  0.93430  Biso   1.000  C
  C143     1.0000 0.14360  0.59322  0.43430  Biso   1.000  C
  C144     1.0000 0.85640  0.09322  0.06570  Biso   1.000  C
  C145     1.0000 0.53060  0.46460  0.70170  Biso   1.000  C
  C146     1.0000 0.46940  0.96460  0.79830  Biso   1.000  C
  C147     1.0000 0.46940  0.53540  0.29830  Biso   1.000  C
  C148     1.0000 0.53060  0.03540  0.20170  Biso   1.000  C
  H85      1.0000 0.56658  0.48903  0.74442  Biso   1.000  H
  H86      1.0000 0.43342  0.98903  0.75558  Biso   1.000  H
  H87      1.0000 0.43342  0.51097  0.25558  Biso   1.000  H
  H88      1.0000 0.56658  0.01097  0.24442  Biso   1.000  H
  C149     1.0000 0.03670  0.13042  0.55870  Biso   1.000  C
  C150     1.0000 0.96330  0.63042  0.94130  Biso   1.000  C
  C151     1.0000 0.96330  0.86958  0.44130  Biso   1.000  C
  C152     1.0000 0.03670  0.36958  0.05870  Biso   1.000  C
  H89      1.0000 0.05484  0.09564  0.58689  Biso   1.000  H
  H90      1.0000 0.94516  0.59564  0.91311  Biso   1.000  H
  H91      1.0000 0.94516  0.90436  0.41311  Biso   1.000  H
  H92      1.0000 0.05484  0.40436  0.08689  Biso   1.000  H
  H93      1.0000 0.11282  0.15139  0.56904  Biso   1.000  H
  H94      1.0000 0.88718  0.65139  0.93096  Biso   1.000  H
  H95      1.0000 0.88718  0.84861  0.43096  Biso   1.000  H
  H96      1.0000 0.11282  0.34861  0.06904  Biso   1.000  H
  H97      1.0000 0.00149  0.12399  0.50088  Biso   1.000  H
  H98      1.0000 0.99851  0.62399  0.99912  Biso   1.000  H
  H99      1.0000 0.99851  0.87601  0.49912  Biso   1.000  H
  H100     1.0000 0.00149  0.37601  0.00088  Biso   1.000  H
  C153     1.0000 0.42800  0.39348  0.58520  Biso   1.000  C
  C154     1.0000 0.57200  0.89348  0.91480  Biso   1.000  C
  C155     1.0000 0.57200  0.60652  0.41480  Biso   1.000  C
  C156     1.0000 0.42800  0.10652  0.08520  Biso   1.000  C
  H101     1.0000 0.39113  0.36826  0.54372  Biso   1.000  H
  H102     1.0000 0.60887  0.86826  0.95628  Biso   1.000  H
  H103     1.0000 0.60887  0.63174  0.45628  Biso   1.000  H
  H104     1.0000 0.39113  0.13174  0.04372  Biso   1.000  H
  C157     1.0000 0.43400  0.54674  0.61960  Biso   1.000  C
  C158     1.0000 0.56600  0.04674  0.88040  Biso   1.000  C
  C159     1.0000 0.56600  0.45326  0.38040  Biso   1.000  C
  C160     1.0000 0.43400  0.95326  0.11960  Biso   1.000  C
  H105     1.0000 0.46357  0.56520  0.67161  Biso   1.000  H
  H106     1.0000 0.53643  0.06520  0.82839  Biso   1.000  H
  H107     1.0000 0.53643  0.43480  0.32839  Biso   1.000  H
  H108     1.0000 0.46357  0.93480  0.17161  Biso   1.000  H
  H109     1.0000 0.34577  0.55345  0.59553  Biso   1.000  H
  H110     1.0000 0.65423  0.05345  0.90447  Biso   1.000  H
  H111     1.0000 0.65423  0.44655  0.40447  Biso   1.000  H
  H112     1.0000 0.34577  0.94655  0.09553  Biso   1.000  H
  H113     1.0000 0.47831  0.56058  0.58390  Biso   1.000  H
  H114     1.0000 0.52169  0.06058  0.91610  Biso   1.000  H
  H115     1.0000 0.52169  0.43942  0.41610  Biso   1.000  H
  H116     1.0000 0.47831  0.93942  0.08390  Biso   1.000  H
  C161     1.0000 0.40220  0.44849  0.57300  Biso   1.000  C
  C162     1.0000 0.59780  0.94849  0.92700  Biso   1.000  C
  C163     1.0000 0.59780  0.55151  0.42700  Biso   1.000  C
  C164     1.0000 0.40220  0.05151  0.07300  Biso   1.000  C
  H117     1.0000 0.34646  0.46056  0.52354  Biso   1.000  H
  H118     1.0000 0.65354  0.96056  0.97646  Biso   1.000  H
  H119     1.0000 0.65354  0.53944  0.47646  Biso   1.000  H
  H120     1.0000 0.34646  0.03944  0.02354  Biso   1.000  H
  C165     1.0000 0.76030  0.98266  0.73130  Biso   1.000  C
  C166     1.0000 0.23970  0.48266  0.76870  Biso   1.000  C
  C167     1.0000 0.23970  0.01734  0.26870  Biso   1.000  C
  C168     1.0000 0.76030  0.51734  0.23130  Biso   1.000  C
  H121     1.0000 0.74163  0.96514  0.77640  Biso   1.000  H
  H122     1.0000 0.25837  0.46514  0.72360  Biso   1.000  H
  H123     1.0000 0.25837  0.03486  0.22360  Biso   1.000  H
  H124     1.0000 0.74163  0.53486  0.27640  Biso   1.000  H
  H125     1.0000 0.84900  0.98090  0.73970  Biso   1.000  H
  H126     1.0000 0.15100  0.48090  0.76030  Biso   1.000  H
  H127     1.0000 0.15100  0.01910  0.26030  Biso   1.000  H
  H128     1.0000 0.84900  0.51910  0.23970  Biso   1.000  H
  H129     1.0000 0.71633  0.96397  0.68127  Biso   1.000  H
  H130     1.0000 0.28367  0.46397  0.81873  Biso   1.000  H
  H131     1.0000 0.28367  0.03603  0.31873  Biso   1.000  H
  H132     1.0000 0.71633  0.53603  0.18127  Biso   1.000  H
  C169     1.0000 0.93210  0.44900  0.53970  Biso   1.000  C
  C170     1.0000 0.06790  0.94900  0.96030  Biso   1.000  C
  C171     1.0000 0.06790  0.55100  0.46030  Biso   1.000  C
  C172     1.0000 0.93210  0.05100  0.03970  Biso   1.000  C
  H133     1.0000 0.94748  0.47970  0.57708  Biso   1.000  H
  H134     1.0000 0.05252  0.97970  0.92292  Biso   1.000  H
  H135     1.0000 0.05252  0.52030  0.42292  Biso   1.000  H
  H136     1.0000 0.94748  0.02030  0.07708  Biso   1.000  H
  H137     1.0000 0.88727  0.46162  0.48549  Biso   1.000  H
  H138     1.0000 0.11273  0.96162  0.01451  Biso   1.000  H
  H139     1.0000 0.11273  0.53838  0.51451  Biso   1.000  H
  H140     1.0000 0.88727  0.03838  0.98549  Biso   1.000  H
  H141     1.0000 0.01073  0.43315  0.53987  Biso   1.000  H
  H142     1.0000 0.98927  0.93315  0.96013  Biso   1.000  H
  H143     1.0000 0.98927  0.56685  0.46013  Biso   1.000  H
  H144     1.0000 0.01073  0.06685  0.03987  Biso   1.000  H
  C173     1.0000 0.19710  0.07980  0.82990  Biso   1.000  C
  C174     1.0000 0.80290  0.57980  0.67010  Biso   1.000  C
  C175     1.0000 0.80290  0.92020  0.17010  Biso   1.000  C
  C176     1.0000 0.19710  0.42020  0.32990  Biso   1.000  C
  H145     1.0000 0.12371  0.07150  0.78471  Biso   1.000  H
  H146     1.0000 0.87629  0.57150  0.71529  Biso   1.000  H
  H147     1.0000 0.87629  0.92850  0.21529  Biso   1.000  H
  H148     1.0000 0.12371  0.42850  0.28471  Biso   1.000  H
  H149     1.0000 0.17217  0.09504  0.87417  Biso   1.000  H
  H150     1.0000 0.82783  0.59504  0.62583  Biso   1.000  H
  H151     1.0000 0.82783  0.90496  0.12583  Biso   1.000  H
  H152     1.0000 0.17217  0.40496  0.37417  Biso   1.000  H
  H153     1.0000 0.24420  0.04648  0.84796  Biso   1.000  H
  H154     1.0000 0.75580  0.54648  0.65204  Biso   1.000  H
  H155     1.0000 0.75580  0.95352  0.15204  Biso   1.000  H
  H156     1.0000 0.24420  0.45352  0.34796  Biso   1.000  H
  C177     1.0000 0.05670  0.19280  0.94240  Biso   1.000  C
  C178     1.0000 0.94330  0.69280  0.55760  Biso   1.000  C
  C179     1.0000 0.94330  0.80720  0.05760  Biso   1.000  C
  C180     1.0000 0.05670  0.30720  0.44240  Biso   1.000  C
  N29      1.0000 0.05700  0.14710  0.94720  Biso   1.000  N
  N30      1.0000 0.94300  0.64710  0.55280  Biso   1.000  N
  N31      1.0000 0.94300  0.85290  0.05280  Biso   1.000  N
  N32      1.0000 0.05700  0.35290  0.44720  Biso   1.000  N
  C181     1.0000 0.05690  0.24860  0.93960  Biso   1.000  C
  C182     1.0000 0.94310  0.74860  0.56040  Biso   1.000  C
  C183     1.0000 0.94310  0.75140  0.06040  Biso   1.000  C
  C184     1.0000 0.05690  0.25140  0.43960  Biso   1.000  C
  H157     1.0000 0.99130  0.26100  0.89216  Biso   1.000  H
  H158     1.0000 0.00870  0.76100  0.60784  Biso   1.000  H
  H159     1.0000 0.00870  0.73900  0.10784  Biso   1.000  H
  H160     1.0000 0.99130  0.23900  0.39216  Biso   1.000  H
  H161     1.0000 0.13651  0.26129  0.93650  Biso   1.000  H
  H162     1.0000 0.86349  0.76129  0.56350  Biso   1.000  H
  H163     1.0000 0.86349  0.73871  0.06350  Biso   1.000  H
  H164     1.0000 0.13651  0.23871  0.43650  Biso   1.000  H
  H165     1.0000 0.04304  0.26316  0.98813  Biso   1.000  H
  H166     1.0000 0.95696  0.76316  0.51187  Biso   1.000  H
  H167     1.0000 0.95696  0.73684  0.01187  Biso   1.000  H
  H168     1.0000 0.04304  0.23684  0.48813  Biso   1.000  H
