data_image0
_cell_length_a       25.555
_cell_length_b       11.3688
_cell_length_c       16.1943
_cell_angle_alpha    90
_cell_angle_beta     100.565
_cell_angle_gamma    90

_symmetry_space_group_name_H-M    "P 1"
_symmetry_int_tables_number       1

loop_
  _symmetry_equiv_pos_as_xyz
  'x, y, z'

loop_
  _atom_site_label
  _atom_site_occupancy
  _atom_site_fract_x
  _atom_site_fract_y
  _atom_site_fract_z
  _atom_site_thermal_displace_type
  _atom_site_B_iso_or_equiv
  _atom_site_type_symbol
  I1       1.0000 0.41694  0.20890  0.76751  Biso   1.000  I
  I2       1.0000 0.58306  0.20890  0.73249  Biso   1.000  I
  I3       1.0000 0.91694  0.70890  0.76751  Biso   1.000  I
  I4       1.0000 0.08306  0.70890  0.73249  Biso   1.000  I
  I5       1.0000 0.58306  0.79110  0.23249  Biso   1.000  I
  I6       1.0000 0.41694  0.79110  0.26751  Biso   1.000  I
  I7       1.0000 0.08306  0.29110  0.23249  Biso   1.000  I
  I8       1.0000 0.91694  0.29110  0.26751  Biso   1.000  I
  I9       1.0000 0.53741  0.50458  0.88345  Biso   1.000  I
  I10      1.0000 0.46259  0.50458  0.61655  Biso   1.000  I
  I11      1.0000 0.03741  0.00458  0.88345  Biso   1.000  I
  I12      1.0000 0.96259  0.00458  0.61655  Biso   1.000  I
  I13      1.0000 0.46259  0.49542  0.11655  Biso   1.000  I
  I14      1.0000 0.53741  0.49542  0.38345  Biso   1.000  I
  I15      1.0000 0.96259  0.99542  0.11655  Biso   1.000  I
  I16      1.0000 0.03741  0.99542  0.38345  Biso   1.000  I
  I17      1.0000 0.33593  0.79378  0.49975  Biso   1.000  I
  I18      1.0000 0.66407  0.79378  0.00025  Biso   1.000  I
  I19      1.0000 0.83593  0.29378  0.49975  Biso   1.000  I
  I20      1.0000 0.16407  0.29378  0.00025  Biso   1.000  I
  I21      1.0000 0.66407  0.20622  0.50025  Biso   1.000  I
  I22      1.0000 0.33593  0.20622  0.99975  Biso   1.000  I
  I23      1.0000 0.16407  0.70622  0.50025  Biso   1.000  I
  I24      1.0000 0.83593  0.70622  0.99975  Biso   1.000  I
  Cu1      1.0000 0.52130  0.27415  0.83870  Biso   1.000  Cu
  Cu2      1.0000 0.47870  0.27415  0.66130  Biso   1.000  Cu
  Cu3      1.0000 0.02130  0.77415  0.83870  Biso   1.000  Cu
  Cu4      1.0000 0.97870  0.77415  0.66130  Biso   1.000  Cu
  Cu5      1.0000 0.47870  0.72585  0.16130  Biso   1.000  Cu
  Cu6      1.0000 0.52130  0.72585  0.33870  Biso   1.000  Cu
  Cu7      1.0000 0.97870  0.22585  0.16130  Biso   1.000  Cu
  Cu8      1.0000 0.02130  0.22585  0.33870  Biso   1.000  Cu
  Cu9      1.0000 0.44974  0.43743  0.76586  Biso   1.000  Cu
  Cu10     1.0000 0.55026  0.43743  0.73414  Biso   1.000  Cu
  Cu11     1.0000 0.94974  0.93743  0.76586  Biso   1.000  Cu
  Cu12     1.0000 0.05026  0.93743  0.73414  Biso   1.000  Cu
  Cu13     1.0000 0.55026  0.56257  0.23414  Biso   1.000  Cu
  Cu14     1.0000 0.44974  0.56257  0.26586  Biso   1.000  Cu
  Cu15     1.0000 0.05026  0.06257  0.23414  Biso   1.000  Cu
  Cu16     1.0000 0.94974  0.06257  0.26586  Biso   1.000  Cu
  Cu17     1.0000 0.24618  0.70536  0.42950  Biso   1.000  Cu
  Cu18     1.0000 0.75382  0.70536  0.07050  Biso   1.000  Cu
  Cu19     1.0000 0.74618  0.20536  0.42950  Biso   1.000  Cu
  Cu20     1.0000 0.25382  0.20536  0.07050  Biso   1.000  Cu
  Cu21     1.0000 0.75382  0.29464  0.57050  Biso   1.000  Cu
  Cu22     1.0000 0.24618  0.29464  0.92950  Biso   1.000  Cu
  Cu23     1.0000 0.25382  0.79464  0.57050  Biso   1.000  Cu
  Cu24     1.0000 0.74618  0.79464  0.92950  Biso   1.000  Cu
  N1       1.0000 0.53550  0.18980  0.94960  Biso   1.000  N
  N2       1.0000 0.46450  0.18980  0.55040  Biso   1.000  N
  N3       1.0000 0.03550  0.68980  0.94960  Biso   1.000  N
  N4       1.0000 0.96450  0.68980  0.55040  Biso   1.000  N
  N5       1.0000 0.46450  0.81020  0.05040  Biso   1.000  N
  N6       1.0000 0.53550  0.81020  0.44960  Biso   1.000  N
  N7       1.0000 0.96450  0.31020  0.05040  Biso   1.000  N
  N8       1.0000 0.03550  0.31020  0.44960  Biso   1.000  N
  N9       1.0000 0.39486  0.53660  0.80790  Biso   1.000  N
  N10      1.0000 0.60514  0.53660  0.69210  Biso   1.000  N
  N11      1.0000 0.89486  0.03660  0.80790  Biso   1.000  N
  N12      1.0000 0.10514  0.03660  0.69210  Biso   1.000  N
  N13      1.0000 0.60514  0.46340  0.19210  Biso   1.000  N
  N14      1.0000 0.39486  0.46340  0.30790  Biso   1.000  N
  N15      1.0000 0.10514  0.96340  0.19210  Biso   1.000  N
  N16      1.0000 0.89486  0.96340  0.30790  Biso   1.000  N
  N17      1.0000 0.35334  0.61780  0.90050  Biso   1.000  N
  N18      1.0000 0.64666  0.61780  0.59950  Biso   1.000  N
  N19      1.0000 0.85334  0.11780  0.90050  Biso   1.000  N
  N20      1.0000 0.14666  0.11780  0.59950  Biso   1.000  N
  N21      1.0000 0.64666  0.38220  0.09950  Biso   1.000  N
  N22      1.0000 0.35334  0.38220  0.40050  Biso   1.000  N
  N23      1.0000 0.14666  0.88220  0.09950  Biso   1.000  N
  N24      1.0000 0.85334  0.88220  0.40050  Biso   1.000  N
  N25      1.0000 0.25995  0.55450  0.20580  Biso   1.000  N
  N26      1.0000 0.74005  0.55450  0.29420  Biso   1.000  N
  N27      1.0000 0.75995  0.05450  0.20580  Biso   1.000  N
  N28      1.0000 0.24005  0.05450  0.29420  Biso   1.000  N
  N29      1.0000 0.74005  0.44550  0.79420  Biso   1.000  N
  N30      1.0000 0.25995  0.44550  0.70580  Biso   1.000  N
  N31      1.0000 0.24005  0.94550  0.79420  Biso   1.000  N
  N32      1.0000 0.75995  0.94550  0.70580  Biso   1.000  N
  N33      1.0000 0.23969  0.62430  0.32250  Biso   1.000  N
  N34      1.0000 0.76031  0.62430  0.17750  Biso   1.000  N
  N35      1.0000 0.73969  0.12430  0.32250  Biso   1.000  N
  N36      1.0000 0.26031  0.12430  0.17750  Biso   1.000  N
  N37      1.0000 0.76031  0.37570  0.67750  Biso   1.000  N
  N38      1.0000 0.23969  0.37570  0.82250  Biso   1.000  N
  N39      1.0000 0.26031  0.87570  0.67750  Biso   1.000  N
  N40      1.0000 0.73969  0.87570  0.82250  Biso   1.000  N
  C1       1.0000 0.57070  0.10280  0.97930  Biso   1.000  C
  C2       1.0000 0.42930  0.10280  0.52070  Biso   1.000  C
  C3       1.0000 0.07070  0.60280  0.97930  Biso   1.000  C
  C4       1.0000 0.92930  0.60280  0.52070  Biso   1.000  C
  C5       1.0000 0.42930  0.89720  0.02070  Biso   1.000  C
  C6       1.0000 0.57070  0.89720  0.47930  Biso   1.000  C
  C7       1.0000 0.92930  0.39720  0.02070  Biso   1.000  C
  C8       1.0000 0.07070  0.39720  0.47930  Biso   1.000  C
  H1       1.0000 0.59520  0.07100  0.94960  Biso   1.000  H
  H2       1.0000 0.40480  0.07100  0.55040  Biso   1.000  H
  H3       1.0000 0.09520  0.57100  0.94960  Biso   1.000  H
  H4       1.0000 0.90480  0.57100  0.55040  Biso   1.000  H
  H5       1.0000 0.40480  0.92900  0.05040  Biso   1.000  H
  H6       1.0000 0.59520  0.92900  0.44960  Biso   1.000  H
  H7       1.0000 0.90480  0.42900  0.05040  Biso   1.000  H
  H8       1.0000 0.09520  0.42900  0.44960  Biso   1.000  H
  C9       1.0000 0.56560  0.06890  0.05660  Biso   1.000  C
  C10      1.0000 0.43440  0.06890  0.44340  Biso   1.000  C
  C11      1.0000 0.06560  0.56890  0.05660  Biso   1.000  C
  C12      1.0000 0.93440  0.56890  0.44340  Biso   1.000  C
  C13      1.0000 0.43440  0.93110  0.94340  Biso   1.000  C
  C14      1.0000 0.56560  0.93110  0.55660  Biso   1.000  C
  C15      1.0000 0.93440  0.43110  0.94340  Biso   1.000  C
  C16      1.0000 0.06560  0.43110  0.55660  Biso   1.000  C
  C17      1.0000 0.52890  0.15030  0.22320  Biso   1.000  C
  C18      1.0000 0.47110  0.15030  0.27680  Biso   1.000  C
  C19      1.0000 0.02890  0.65030  0.22320  Biso   1.000  C
  C20      1.0000 0.97110  0.65030  0.27680  Biso   1.000  C
  C21      1.0000 0.47110  0.84970  0.77680  Biso   1.000  C
  C22      1.0000 0.52890  0.84970  0.72320  Biso   1.000  C
  C23      1.0000 0.97110  0.34970  0.77680  Biso   1.000  C
  C24      1.0000 0.02890  0.34970  0.72320  Biso   1.000  C
  C25      1.0000 0.36750  0.63380  0.77320  Biso   1.000  C
  C26      1.0000 0.63250  0.63380  0.72680  Biso   1.000  C
  C27      1.0000 0.86750  0.13380  0.77320  Biso   1.000  C
  C28      1.0000 0.13250  0.13380  0.72680  Biso   1.000  C
  C29      1.0000 0.63250  0.36620  0.22680  Biso   1.000  C
  C30      1.0000 0.36750  0.36620  0.27320  Biso   1.000  C
  C31      1.0000 0.13250  0.86620  0.22680  Biso   1.000  C
  C32      1.0000 0.86750  0.86620  0.27320  Biso   1.000  C
  H9       1.0000 0.36740  0.66200  0.71930  Biso   1.000  H
  H10      1.0000 0.63260  0.66200  0.78070  Biso   1.000  H
  H11      1.0000 0.86740  0.16200  0.71930  Biso   1.000  H
  H12      1.0000 0.13260  0.16200  0.78070  Biso   1.000  H
  H13      1.0000 0.63260  0.33800  0.28070  Biso   1.000  H
  H14      1.0000 0.36740  0.33800  0.21930  Biso   1.000  H
  H15      1.0000 0.13260  0.83800  0.28070  Biso   1.000  H
  H16      1.0000 0.86740  0.83800  0.21930  Biso   1.000  H
  C33      1.0000 0.34090  0.68210  0.82880  Biso   1.000  C
  C34      1.0000 0.65910  0.68210  0.67120  Biso   1.000  C
  C35      1.0000 0.84090  0.18210  0.82880  Biso   1.000  C
  C36      1.0000 0.15910  0.18210  0.67120  Biso   1.000  C
  C37      1.0000 0.65910  0.31790  0.17120  Biso   1.000  C
  C38      1.0000 0.34090  0.31790  0.32880  Biso   1.000  C
  C39      1.0000 0.15910  0.81790  0.17120  Biso   1.000  C
  C40      1.0000 0.84090  0.81790  0.32880  Biso   1.000  C
  H17      1.0000 0.31840  0.74700  0.82000  Biso   1.000  H
  H18      1.0000 0.68160  0.74700  0.68000  Biso   1.000  H
  H19      1.0000 0.81840  0.24700  0.82000  Biso   1.000  H
  H20      1.0000 0.18160  0.24700  0.68000  Biso   1.000  H
  H21      1.0000 0.68160  0.25300  0.18000  Biso   1.000  H
  H22      1.0000 0.31840  0.25300  0.32000  Biso   1.000  H
  H23      1.0000 0.18160  0.75300  0.18000  Biso   1.000  H
  H24      1.0000 0.81840  0.75300  0.32000  Biso   1.000  H
  C41      1.0000 0.38470  0.52850  0.88390  Biso   1.000  C
  C42      1.0000 0.61530  0.52850  0.61610  Biso   1.000  C
  C43      1.0000 0.88470  0.02850  0.88390  Biso   1.000  C
  C44      1.0000 0.11530  0.02850  0.61610  Biso   1.000  C
  C45      1.0000 0.61530  0.47150  0.11610  Biso   1.000  C
  C46      1.0000 0.38470  0.47150  0.38390  Biso   1.000  C
  C47      1.0000 0.11530  0.97150  0.11610  Biso   1.000  C
  C48      1.0000 0.88470  0.97150  0.38390  Biso   1.000  C
  H25      1.0000 0.39750  0.46900  0.92170  Biso   1.000  H
  H26      1.0000 0.60250  0.46900  0.57830  Biso   1.000  H
  H27      1.0000 0.89750  0.96900  0.92170  Biso   1.000  H
  H28      1.0000 0.10250  0.96900  0.57830  Biso   1.000  H
  H29      1.0000 0.60250  0.53100  0.07830  Biso   1.000  H
  H30      1.0000 0.39750  0.53100  0.42170  Biso   1.000  H
  H31      1.0000 0.10250  0.03100  0.07830  Biso   1.000  H
  H32      1.0000 0.89750  0.03100  0.42170  Biso   1.000  H
  C49      1.0000 0.33580  0.64240  0.98330  Biso   1.000  C
  C50      1.0000 0.66420  0.64240  0.51670  Biso   1.000  C
  C51      1.0000 0.83580  0.14240  0.98330  Biso   1.000  C
  C52      1.0000 0.16420  0.14240  0.51670  Biso   1.000  C
  C53      1.0000 0.66420  0.35760  0.01670  Biso   1.000  C
  C54      1.0000 0.33580  0.35760  0.48330  Biso   1.000  C
  C55      1.0000 0.16420  0.85760  0.01670  Biso   1.000  C
  C56      1.0000 0.83580  0.85760  0.48330  Biso   1.000  C
  H33      1.0000 0.36260  0.61630  0.03000  Biso   1.000  H
  H34      1.0000 0.63740  0.61630  0.47000  Biso   1.000  H
  H35      1.0000 0.86260  0.11630  0.03000  Biso   1.000  H
  H36      1.0000 0.13740  0.11630  0.47000  Biso   1.000  H
  H37      1.0000 0.63740  0.38370  0.97000  Biso   1.000  H
  H38      1.0000 0.36260  0.38370  0.53000  Biso   1.000  H
  H39      1.0000 0.13740  0.88370  0.97000  Biso   1.000  H
  H40      1.0000 0.86260  0.88370  0.53000  Biso   1.000  H
  H41      1.0000 0.32960  0.72580  0.98960  Biso   1.000  H
  H42      1.0000 0.67040  0.72580  0.51040  Biso   1.000  H
  H43      1.0000 0.82960  0.22580  0.98960  Biso   1.000  H
  H44      1.0000 0.17040  0.22580  0.51040  Biso   1.000  H
  H45      1.0000 0.67040  0.27420  0.01040  Biso   1.000  H
  H46      1.0000 0.32960  0.27420  0.48960  Biso   1.000  H
  H47      1.0000 0.17040  0.77420  0.01040  Biso   1.000  H
  H48      1.0000 0.82960  0.77420  0.48960  Biso   1.000  H
  C57      1.0000 0.28630  0.57600  0.98000  Biso   1.000  C
  C58      1.0000 0.71370  0.57600  0.52000  Biso   1.000  C
  C59      1.0000 0.78630  0.07600  0.98000  Biso   1.000  C
  C60      1.0000 0.21370  0.07600  0.52000  Biso   1.000  C
  C61      1.0000 0.71370  0.42400  0.02000  Biso   1.000  C
  C62      1.0000 0.28630  0.42400  0.48000  Biso   1.000  C
  C63      1.0000 0.21370  0.92400  0.02000  Biso   1.000  C
  C64      1.0000 0.78630  0.92400  0.48000  Biso   1.000  C
  H49      1.0000 0.29320  0.49230  0.97750  Biso   1.000  H
  H50      1.0000 0.70680  0.49230  0.52250  Biso   1.000  H
  H51      1.0000 0.79320  0.99230  0.97750  Biso   1.000  H
  H52      1.0000 0.20680  0.99230  0.52250  Biso   1.000  H
  H53      1.0000 0.70680  0.50770  0.02250  Biso   1.000  H
  H54      1.0000 0.29320  0.50770  0.47750  Biso   1.000  H
  H55      1.0000 0.20680  0.00770  0.02250  Biso   1.000  H
  H56      1.0000 0.79320  0.00770  0.47750  Biso   1.000  H
  H57      1.0000 0.26070  0.59790  0.93050  Biso   1.000  H
  H58      1.0000 0.73930  0.59790  0.56950  Biso   1.000  H
  H59      1.0000 0.76070  0.09790  0.93050  Biso   1.000  H
  H60      1.0000 0.23930  0.09790  0.56950  Biso   1.000  H
  H61      1.0000 0.73930  0.40210  0.06950  Biso   1.000  H
  H62      1.0000 0.26070  0.40210  0.43050  Biso   1.000  H
  H63      1.0000 0.23930  0.90210  0.06950  Biso   1.000  H
  H64      1.0000 0.76070  0.90210  0.43050  Biso   1.000  H
  C65      1.0000 0.26360  0.60700  0.06370  Biso   1.000  C
  C66      1.0000 0.73640  0.60700  0.43630  Biso   1.000  C
  C67      1.0000 0.76360  0.10700  0.06370  Biso   1.000  C
  C68      1.0000 0.23640  0.10700  0.43630  Biso   1.000  C
  C69      1.0000 0.73640  0.39300  0.93630  Biso   1.000  C
  C70      1.0000 0.26360  0.39300  0.56370  Biso   1.000  C
  C71      1.0000 0.23640  0.89300  0.93630  Biso   1.000  C
  C72      1.0000 0.76360  0.89300  0.56370  Biso   1.000  C
  H65      1.0000 0.26940  0.68990  0.07620  Biso   1.000  H
  H66      1.0000 0.73060  0.68990  0.42380  Biso   1.000  H
  H67      1.0000 0.76940  0.18990  0.07620  Biso   1.000  H
  H68      1.0000 0.23060  0.18990  0.42380  Biso   1.000  H
  H69      1.0000 0.73060  0.31010  0.92380  Biso   1.000  H
  H70      1.0000 0.26940  0.31010  0.57620  Biso   1.000  H
  H71      1.0000 0.23060  0.81010  0.92380  Biso   1.000  H
  H72      1.0000 0.76940  0.81010  0.57620  Biso   1.000  H
  H73      1.0000 0.22550  0.59300  0.05340  Biso   1.000  H
  H74      1.0000 0.77450  0.59300  0.44660  Biso   1.000  H
  H75      1.0000 0.72550  0.09300  0.05340  Biso   1.000  H
  H76      1.0000 0.27450  0.09300  0.44660  Biso   1.000  H
  H77      1.0000 0.77450  0.40700  0.94660  Biso   1.000  H
  H78      1.0000 0.22550  0.40700  0.55340  Biso   1.000  H
  H79      1.0000 0.27450  0.90700  0.94660  Biso   1.000  H
  H80      1.0000 0.72550  0.90700  0.55340  Biso   1.000  H
  C73      1.0000 0.28790  0.53960  0.13490  Biso   1.000  C
  C74      1.0000 0.71210  0.53960  0.36510  Biso   1.000  C
  C75      1.0000 0.78790  0.03960  0.13490  Biso   1.000  C
  C76      1.0000 0.21210  0.03960  0.36510  Biso   1.000  C
  C77      1.0000 0.71210  0.46040  0.86510  Biso   1.000  C
  C78      1.0000 0.28790  0.46040  0.63490  Biso   1.000  C
  C79      1.0000 0.21210  0.96040  0.86510  Biso   1.000  C
  C80      1.0000 0.78790  0.96040  0.63490  Biso   1.000  C
  H81      1.0000 0.32470  0.56400  0.15190  Biso   1.000  H
  H82      1.0000 0.67530  0.56400  0.34810  Biso   1.000  H
  H83      1.0000 0.82470  0.06400  0.15190  Biso   1.000  H
  H84      1.0000 0.17530  0.06400  0.34810  Biso   1.000  H
  H85      1.0000 0.67530  0.43600  0.84810  Biso   1.000  H
  H86      1.0000 0.32470  0.43600  0.65190  Biso   1.000  H
  H87      1.0000 0.17530  0.93600  0.84810  Biso   1.000  H
  H88      1.0000 0.82470  0.93600  0.65190  Biso   1.000  H
  H89      1.0000 0.28770  0.45710  0.11960  Biso   1.000  H
  H90      1.0000 0.71230  0.45710  0.38040  Biso   1.000  H
  H91      1.0000 0.78770  0.95710  0.11960  Biso   1.000  H
  H92      1.0000 0.21230  0.95710  0.38040  Biso   1.000  H
  H93      1.0000 0.71230  0.54290  0.88040  Biso   1.000  H
  H94      1.0000 0.28770  0.54290  0.61960  Biso   1.000  H
  H95      1.0000 0.21230  0.04290  0.88040  Biso   1.000  H
  H96      1.0000 0.78770  0.04290  0.61960  Biso   1.000  H
  C81      1.0000 0.27440  0.62560  0.27100  Biso   1.000  C
  C82      1.0000 0.72560  0.62560  0.22900  Biso   1.000  C
  C83      1.0000 0.77440  0.12560  0.27100  Biso   1.000  C
  C84      1.0000 0.22560  0.12560  0.22900  Biso   1.000  C
  C85      1.0000 0.72560  0.37440  0.72900  Biso   1.000  C
  C86      1.0000 0.27440  0.37440  0.77100  Biso   1.000  C
  C87      1.0000 0.22560  0.87440  0.72900  Biso   1.000  C
  C88      1.0000 0.77440  0.87440  0.77100  Biso   1.000  C
  H97      1.0000 0.30520  0.67100  0.27950  Biso   1.000  H
  H98      1.0000 0.69480  0.67100  0.22050  Biso   1.000  H
  H99      1.0000 0.80520  0.17100  0.27950  Biso   1.000  H
  H100     1.0000 0.19480  0.17100  0.22050  Biso   1.000  H
  H101     1.0000 0.69480  0.32900  0.72050  Biso   1.000  H
  H102     1.0000 0.30520  0.32900  0.77950  Biso   1.000  H
  H103     1.0000 0.19480  0.82900  0.72050  Biso   1.000  H
  H104     1.0000 0.80520  0.82900  0.77950  Biso   1.000  H
  C89      1.0000 0.21290  0.50480  0.21550  Biso   1.000  C
  C90      1.0000 0.78710  0.50480  0.28450  Biso   1.000  C
  C91      1.0000 0.71290  0.00480  0.21550  Biso   1.000  C
  C92      1.0000 0.28710  0.00480  0.28450  Biso   1.000  C
  C93      1.0000 0.78710  0.49520  0.78450  Biso   1.000  C
  C94      1.0000 0.21290  0.49520  0.71550  Biso   1.000  C
  C95      1.0000 0.28710  0.99520  0.78450  Biso   1.000  C
  C96      1.0000 0.71290  0.99520  0.71550  Biso   1.000  C
  H105     1.0000 0.19280  0.45130  0.17930  Biso   1.000  H
  H106     1.0000 0.80720  0.45130  0.32070  Biso   1.000  H
  H107     1.0000 0.69280  0.95130  0.17930  Biso   1.000  H
  H108     1.0000 0.30720  0.95130  0.32070  Biso   1.000  H
  H109     1.0000 0.80720  0.54870  0.82070  Biso   1.000  H
  H110     1.0000 0.19280  0.54870  0.67930  Biso   1.000  H
  H111     1.0000 0.30720  0.04870  0.82070  Biso   1.000  H
  H112     1.0000 0.69280  0.04870  0.67930  Biso   1.000  H
  C97      1.0000 0.20120  0.54760  0.28680  Biso   1.000  C
  C98      1.0000 0.79880  0.54760  0.21320  Biso   1.000  C
  C99      1.0000 0.70120  0.04760  0.28680  Biso   1.000  C
  C100     1.0000 0.29880  0.04760  0.21320  Biso   1.000  C
  C101     1.0000 0.79880  0.45240  0.71320  Biso   1.000  C
  C102     1.0000 0.20120  0.45240  0.78680  Biso   1.000  C
  C103     1.0000 0.29880  0.95240  0.71320  Biso   1.000  C
  C104     1.0000 0.70120  0.95240  0.78680  Biso   1.000  C
  H113     1.0000 0.17120  0.52780  0.30880  Biso   1.000  H
  H114     1.0000 0.82880  0.52780  0.19120  Biso   1.000  H
  H115     1.0000 0.67120  0.02780  0.30880  Biso   1.000  H
  H116     1.0000 0.32880  0.02780  0.19120  Biso   1.000  H
  H117     1.0000 0.82880  0.47220  0.69120  Biso   1.000  H
  H118     1.0000 0.17120  0.47220  0.80880  Biso   1.000  H
  H119     1.0000 0.32880  0.97220  0.69120  Biso   1.000  H
  H120     1.0000 0.67120  0.97220  0.80880  Biso   1.000  H
  N41      1.0000 0.51790  0.12890  0.06730  Biso   1.000  N
  N42      1.0000 0.48210  0.12890  0.43270  Biso   1.000  N
  N43      1.0000 0.01790  0.62890  0.06730  Biso   1.000  N
  N44      1.0000 0.98210  0.62890  0.43270  Biso   1.000  N
  N45      1.0000 0.48210  0.87110  0.93270  Biso   1.000  N
  N46      1.0000 0.51790  0.87110  0.56730  Biso   1.000  N
  N47      1.0000 0.98210  0.37110  0.93270  Biso   1.000  N
  N48      1.0000 0.01790  0.37110  0.56730  Biso   1.000  N
  C105     1.0000 0.50680  0.19500  0.00630  Biso   1.000  C
  C106     1.0000 0.49320  0.19500  0.49370  Biso   1.000  C
  C107     1.0000 0.00680  0.69500  0.00630  Biso   1.000  C
  C108     1.0000 0.99320  0.69500  0.49370  Biso   1.000  C
  C109     1.0000 0.49320  0.80500  0.99370  Biso   1.000  C
  C110     1.0000 0.50680  0.80500  0.50630  Biso   1.000  C
  C111     1.0000 0.99320  0.30500  0.99370  Biso   1.000  C
  C112     1.0000 0.00680  0.30500  0.50630  Biso   1.000  C
  H121     1.0000 0.47830  0.24650  0.00150  Biso   1.000  H
  H122     1.0000 0.52170  0.24650  0.49850  Biso   1.000  H
  H123     1.0000 0.97830  0.74650  0.00150  Biso   1.000  H
  H124     1.0000 0.02170  0.74650  0.49850  Biso   1.000  H
  H125     1.0000 0.52170  0.75350  0.99850  Biso   1.000  H
  H126     1.0000 0.47830  0.75350  0.50150  Biso   1.000  H
  H127     1.0000 0.02170  0.25350  0.99850  Biso   1.000  H
  H128     1.0000 0.97830  0.25350  0.50150  Biso   1.000  H
  C113     1.0000 0.49190  0.11240  0.14180  Biso   1.000  C
  C114     1.0000 0.50810  0.11240  0.35820  Biso   1.000  C
  C115     1.0000 0.99190  0.61240  0.14180  Biso   1.000  C
  C116     1.0000 0.00810  0.61240  0.35820  Biso   1.000  C
  C117     1.0000 0.50810  0.88760  0.85820  Biso   1.000  C
  C118     1.0000 0.49190  0.88760  0.64180  Biso   1.000  C
  C119     1.0000 0.00810  0.38760  0.85820  Biso   1.000  C
  C120     1.0000 0.99190  0.38760  0.64180  Biso   1.000  C
  C121     1.0000 0.47950  0.11310  0.18630  Biso   1.000  C
  C122     1.0000 0.52050  0.11310  0.31370  Biso   1.000  C
  C123     1.0000 0.97950  0.61310  0.18630  Biso   1.000  C
  C124     1.0000 0.02050  0.61310  0.31370  Biso   1.000  C
  C125     1.0000 0.52050  0.88690  0.81370  Biso   1.000  C
  C126     1.0000 0.47950  0.88690  0.68630  Biso   1.000  C
  C127     1.0000 0.02050  0.38690  0.81370  Biso   1.000  C
  C128     1.0000 0.97950  0.38690  0.68630  Biso   1.000  C
  N49      1.0000 0.53830  0.15200  0.09000  Biso   1.000  N
  N50      1.0000 0.46170  0.15200  0.41000  Biso   1.000  N
  N51      1.0000 0.03830  0.65200  0.09000  Biso   1.000  N
  N52      1.0000 0.96170  0.65200  0.41000  Biso   1.000  N
  N53      1.0000 0.46170  0.84800  0.91000  Biso   1.000  N
  N54      1.0000 0.53830  0.84800  0.59000  Biso   1.000  N
  N55      1.0000 0.96170  0.34800  0.91000  Biso   1.000  N
  N56      1.0000 0.03830  0.34800  0.59000  Biso   1.000  N
  C129     1.0000 0.51300  0.22900  0.01700  Biso   1.000  C
  C130     1.0000 0.48700  0.22900  0.48300  Biso   1.000  C
  C131     1.0000 0.01300  0.72900  0.01700  Biso   1.000  C
  C132     1.0000 0.98700  0.72900  0.48300  Biso   1.000  C
  C133     1.0000 0.48700  0.77100  0.98300  Biso   1.000  C
  C134     1.0000 0.51300  0.77100  0.51700  Biso   1.000  C
  C135     1.0000 0.98700  0.27100  0.98300  Biso   1.000  C
  C136     1.0000 0.01300  0.27100  0.51700  Biso   1.000  C
  H129     1.0000 0.48800  0.28840  0.01740  Biso   1.000  H
  H130     1.0000 0.51200  0.28840  0.48260  Biso   1.000  H
  H131     1.0000 0.98800  0.78840  0.01740  Biso   1.000  H
  H132     1.0000 0.01200  0.78840  0.48260  Biso   1.000  H
  H133     1.0000 0.51200  0.71160  0.98260  Biso   1.000  H
  H134     1.0000 0.48800  0.71160  0.51740  Biso   1.000  H
  H135     1.0000 0.01200  0.21160  0.98260  Biso   1.000  H
  H136     1.0000 0.98800  0.21160  0.51740  Biso   1.000  H
  C137     1.0000 0.53070  0.17500  0.18010  Biso   1.000  C
  C138     1.0000 0.46930  0.17500  0.31990  Biso   1.000  C
  C139     1.0000 0.03070  0.67500  0.18010  Biso   1.000  C
  C140     1.0000 0.96930  0.67500  0.31990  Biso   1.000  C
  C141     1.0000 0.46930  0.82500  0.81990  Biso   1.000  C
  C142     1.0000 0.53070  0.82500  0.68010  Biso   1.000  C
  C143     1.0000 0.96930  0.32500  0.81990  Biso   1.000  C
  C144     1.0000 0.03070  0.32500  0.68010  Biso   1.000  C
