data_image0
_cell_length_a       10.1
_cell_length_b       33.869
_cell_length_c       10.895
_cell_angle_alpha    90
_cell_angle_beta     107.104
_cell_angle_gamma    90

_symmetry_space_group_name_H-M    "P 1"
_symmetry_int_tables_number       1

loop_
  _symmetry_equiv_pos_as_xyz
  'x, y, z'

loop_
  _atom_site_label
  _atom_site_occupancy
  _atom_site_fract_x
  _atom_site_fract_y
  _atom_site_fract_z
  _atom_site_thermal_displace_type
  _atom_site_B_iso_or_equiv
  _atom_site_type_symbol
  Cu1      1.0000 0.88227  0.10692  0.51010  Biso   1.000  Cu
  Cu2      1.0000 0.11773  0.60692  0.98990  Biso   1.000  Cu
  Cu3      1.0000 0.11773  0.89308  0.48990  Biso   1.000  Cu
  Cu4      1.0000 0.88227  0.39308  0.01010  Biso   1.000  Cu
  Cu5      1.0000 0.09128  0.16623  0.60084  Biso   1.000  Cu
  Cu6      1.0000 0.90872  0.66623  0.89916  Biso   1.000  Cu
  Cu7      1.0000 0.90872  0.83377  0.39916  Biso   1.000  Cu
  Cu8      1.0000 0.09128  0.33377  0.10084  Biso   1.000  Cu
  I1       1.0000 0.12355  0.09090  0.67871  Biso   1.000  I
  I2       1.0000 0.87645  0.59090  0.82129  Biso   1.000  I
  I3       1.0000 0.87645  0.90910  0.32129  Biso   1.000  I
  I4       1.0000 0.12355  0.40910  0.17871  Biso   1.000  I
  I5       1.0000 0.81407  0.18078  0.48303  Biso   1.000  I
  I6       1.0000 0.18593  0.68078  0.01697  Biso   1.000  I
  I7       1.0000 0.18593  0.81922  0.51697  Biso   1.000  I
  I8       1.0000 0.81407  0.31922  0.98303  Biso   1.000  I
  N1       1.0000 0.74780  0.07870  0.61360  Biso   1.000  N
  N2       1.0000 0.25220  0.57870  0.88640  Biso   1.000  N
  N3       1.0000 0.25220  0.92130  0.38640  Biso   1.000  N
  N4       1.0000 0.74780  0.42130  0.11360  Biso   1.000  N
  N5       1.0000 0.54010  0.04370  0.61410  Biso   1.000  N
  N6       1.0000 0.45990  0.54370  0.88590  Biso   1.000  N
  N7       1.0000 0.45990  0.95630  0.38590  Biso   1.000  N
  N8       1.0000 0.54010  0.45630  0.11410  Biso   1.000  N
  N9       1.0000 0.66430  0.02530  0.47910  Biso   1.000  N
  N10      1.0000 0.33570  0.52530  0.02090  Biso   1.000  N
  N11      1.0000 0.33570  0.97470  0.52090  Biso   1.000  N
  N12      1.0000 0.66430  0.47470  0.97910  Biso   1.000  N
  H1       1.0000 0.59350  0.01120  0.44060  Biso   1.000  H
  H2       1.0000 0.40650  0.51120  0.05940  Biso   1.000  H
  H3       1.0000 0.40650  0.98880  0.55940  Biso   1.000  H
  H4       1.0000 0.59350  0.48880  0.94060  Biso   1.000  H
  N13      1.0000 0.20980  0.33070  0.97540  Biso   1.000  N
  N14      1.0000 0.79020  0.83070  0.52460  Biso   1.000  N
  N15      1.0000 0.79020  0.66930  0.02460  Biso   1.000  N
  N16      1.0000 0.20980  0.16930  0.47540  Biso   1.000  N
  N17      1.0000 0.27240  0.30360  0.79830  Biso   1.000  N
  N18      1.0000 0.72760  0.80360  0.70170  Biso   1.000  N
  N19      1.0000 0.72760  0.69640  0.20170  Biso   1.000  N
  N20      1.0000 0.27240  0.19640  0.29830  Biso   1.000  N
  N21      1.0000 0.08310  0.28010  0.85460  Biso   1.000  N
  N22      1.0000 0.91690  0.78010  0.64540  Biso   1.000  N
  N23      1.0000 0.91690  0.71990  0.14540  Biso   1.000  N
  N24      1.0000 0.08310  0.21990  0.35460  Biso   1.000  N
  H5       1.0000 0.03320  0.28050  0.90640  Biso   1.000  H
  H6       1.0000 0.96680  0.78050  0.59360  Biso   1.000  H
  H7       1.0000 0.96680  0.71950  0.09360  Biso   1.000  H
  H8       1.0000 0.03320  0.21950  0.40640  Biso   1.000  H
  P1       1.0000 0.82750  0.06316  0.35260  Biso   1.000  P
  P2       1.0000 0.17250  0.56316  0.14740  Biso   1.000  P
  P3       1.0000 0.17250  0.93684  0.64740  Biso   1.000  P
  P4       1.0000 0.82750  0.43684  0.85260  Biso   1.000  P
  P5       1.0000 0.12560  0.20206  0.77990  Biso   1.000  P
  P6       1.0000 0.87440  0.70206  0.72010  Biso   1.000  P
  P7       1.0000 0.87440  0.79794  0.22010  Biso   1.000  P
  P8       1.0000 0.12560  0.29794  0.27990  Biso   1.000  P
  C1       1.0000 0.65060  0.04970  0.56920  Biso   1.000  C
  C2       1.0000 0.34940  0.54970  0.93080  Biso   1.000  C
  C3       1.0000 0.34940  0.95030  0.43080  Biso   1.000  C
  C4       1.0000 0.65060  0.45030  0.06920  Biso   1.000  C
  C5       1.0000 0.53320  0.06660  0.71090  Biso   1.000  C
  C6       1.0000 0.46680  0.56660  0.78910  Biso   1.000  C
  C7       1.0000 0.46680  0.93340  0.28910  Biso   1.000  C
  C8       1.0000 0.53320  0.43340  0.21090  Biso   1.000  C
  H9       1.0000 0.45820  0.06330  0.74300  Biso   1.000  H
  H10      1.0000 0.54180  0.56330  0.75700  Biso   1.000  H
  H11      1.0000 0.54180  0.93670  0.25700  Biso   1.000  H
  H12      1.0000 0.45820  0.43670  0.24300  Biso   1.000  H
  C9       1.0000 0.62990  0.09490  0.76660  Biso   1.000  C
  C10      1.0000 0.37010  0.59490  0.73340  Biso   1.000  C
  C11      1.0000 0.37010  0.90510  0.23340  Biso   1.000  C
  C12      1.0000 0.62990  0.40510  0.26660  Biso   1.000  C
  H13      1.0000 0.62300  0.10990  0.83620  Biso   1.000  H
  H14      1.0000 0.37700  0.60990  0.66380  Biso   1.000  H
  H15      1.0000 0.37700  0.89010  0.16380  Biso   1.000  H
  H16      1.0000 0.62300  0.39010  0.33620  Biso   1.000  H
  C13      1.0000 0.73580  0.10000  0.71520  Biso   1.000  C
  C14      1.0000 0.26420  0.60000  0.78480  Biso   1.000  C
  C15      1.0000 0.26420  0.90000  0.28480  Biso   1.000  C
  C16      1.0000 0.73580  0.40000  0.21520  Biso   1.000  C
  H17      1.0000 0.80290  0.11890  0.75100  Biso   1.000  H
  H18      1.0000 0.19710  0.61890  0.74900  Biso   1.000  H
  H19      1.0000 0.19710  0.88110  0.24900  Biso   1.000  H
  H20      1.0000 0.80290  0.38110  0.25100  Biso   1.000  H
  C17      1.0000 0.78730  0.02040  0.43990  Biso   1.000  C
  C18      1.0000 0.21270  0.52040  0.06010  Biso   1.000  C
  C19      1.0000 0.21270  0.97960  0.56010  Biso   1.000  C
  C20      1.0000 0.78730  0.47960  0.93990  Biso   1.000  C
  H21      1.0000 0.77620  0.99720  0.38530  Biso   1.000  H
  H22      1.0000 0.22380  0.49720  0.11470  Biso   1.000  H
  H23      1.0000 0.22380  0.00280  0.61470  Biso   1.000  H
  H24      1.0000 0.77620  0.50280  0.88530  Biso   1.000  H
  H25      1.0000 0.86510  0.01560  0.51540  Biso   1.000  H
  H26      1.0000 0.13490  0.51560  0.98460  Biso   1.000  H
  H27      1.0000 0.13490  0.98440  0.48460  Biso   1.000  H
  H28      1.0000 0.86510  0.48440  0.01540  Biso   1.000  H
  C21      1.0000 0.67180  0.06960  0.21900  Biso   1.000  C
  C22      1.0000 0.32820  0.56960  0.28100  Biso   1.000  C
  C23      1.0000 0.32820  0.93040  0.78100  Biso   1.000  C
  C24      1.0000 0.67180  0.43040  0.71900  Biso   1.000  C
  C25      1.0000 0.57990  0.03880  0.16450  Biso   1.000  C
  C26      1.0000 0.42010  0.53880  0.33550  Biso   1.000  C
  C27      1.0000 0.42010  0.96120  0.83550  Biso   1.000  C
  C28      1.0000 0.57990  0.46120  0.66450  Biso   1.000  C
  H29      1.0000 0.59890  0.01330  0.19620  Biso   1.000  H
  H30      1.0000 0.40110  0.51330  0.30380  Biso   1.000  H
  H31      1.0000 0.40110  0.98670  0.80380  Biso   1.000  H
  H32      1.0000 0.59890  0.48670  0.69620  Biso   1.000  H
  C29      1.0000 0.46200  0.04610  0.06450  Biso   1.000  C
  C30      1.0000 0.53800  0.54610  0.43550  Biso   1.000  C
  C31      1.0000 0.53800  0.95390  0.93550  Biso   1.000  C
  C32      1.0000 0.46200  0.45390  0.56450  Biso   1.000  C
  H33      1.0000 0.40200  0.02560  0.02800  Biso   1.000  H
  H34      1.0000 0.59800  0.52560  0.47200  Biso   1.000  H
  H35      1.0000 0.59800  0.97440  0.97200  Biso   1.000  H
  H36      1.0000 0.40200  0.47440  0.52800  Biso   1.000  H
  C33      1.0000 0.43440  0.08440  0.01930  Biso   1.000  C
  C34      1.0000 0.56560  0.58440  0.48070  Biso   1.000  C
  C35      1.0000 0.56560  0.91560  0.98070  Biso   1.000  C
  C36      1.0000 0.43440  0.41560  0.51930  Biso   1.000  C
  H37      1.0000 0.35520  0.08950  0.95180  Biso   1.000  H
  H38      1.0000 0.64480  0.58950  0.54820  Biso   1.000  H
  H39      1.0000 0.64480  0.91050  0.04820  Biso   1.000  H
  H40      1.0000 0.35520  0.41050  0.45180  Biso   1.000  H
  C37      1.0000 0.51900  0.11380  0.07070  Biso   1.000  C
  C38      1.0000 0.48100  0.61380  0.42930  Biso   1.000  C
  C39      1.0000 0.48100  0.88620  0.92930  Biso   1.000  C
  C40      1.0000 0.51900  0.38620  0.57070  Biso   1.000  C
  H41      1.0000 0.49830  0.13930  0.03910  Biso   1.000  H
  H42      1.0000 0.50170  0.63930  0.46090  Biso   1.000  H
  H43      1.0000 0.50170  0.86070  0.96090  Biso   1.000  H
  H44      1.0000 0.49830  0.36070  0.53910  Biso   1.000  H
  C41      1.0000 0.63710  0.10710  0.17030  Biso   1.000  C
  C42      1.0000 0.36290  0.60710  0.32970  Biso   1.000  C
  C43      1.0000 0.36290  0.89290  0.82970  Biso   1.000  C
  C44      1.0000 0.63710  0.39290  0.67030  Biso   1.000  C
  H45      1.0000 0.69470  0.12820  0.20540  Biso   1.000  H
  H46      1.0000 0.30530  0.62820  0.29460  Biso   1.000  H
  H47      1.0000 0.30530  0.87180  0.79460  Biso   1.000  H
  H48      1.0000 0.69470  0.37180  0.70540  Biso   1.000  H
  C45      1.0000 0.95690  0.04310  0.28500  Biso   1.000  C
  C46      1.0000 0.04310  0.54310  0.21500  Biso   1.000  C
  C47      1.0000 0.04310  0.95690  0.71500  Biso   1.000  C
  C48      1.0000 0.95690  0.45690  0.78500  Biso   1.000  C
  C49      1.0000 0.08850  0.05870  0.32130  Biso   1.000  C
  C50      1.0000 0.91150  0.55870  0.17870  Biso   1.000  C
  C51      1.0000 0.91150  0.94130  0.67870  Biso   1.000  C
  C52      1.0000 0.08850  0.44130  0.82130  Biso   1.000  C
  H49      1.0000 0.10740  0.08030  0.37630  Biso   1.000  H
  H50      1.0000 0.89260  0.58030  0.12370  Biso   1.000  H
  H51      1.0000 0.89260  0.91970  0.62370  Biso   1.000  H
  H52      1.0000 0.10740  0.41970  0.87630  Biso   1.000  H
  C53      1.0000 0.19300  0.04330  0.27880  Biso   1.000  C
  C54      1.0000 0.80700  0.54330  0.22120  Biso   1.000  C
  C55      1.0000 0.80700  0.95670  0.72120  Biso   1.000  C
  C56      1.0000 0.19300  0.45670  0.77880  Biso   1.000  C
  H53      1.0000 0.28120  0.05430  0.30510  Biso   1.000  H
  H54      1.0000 0.71880  0.55430  0.19490  Biso   1.000  H
  H55      1.0000 0.71880  0.94570  0.69490  Biso   1.000  H
  H56      1.0000 0.28120  0.44570  0.80510  Biso   1.000  H
  C57      1.0000 0.16560  0.01140  0.19690  Biso   1.000  C
  C58      1.0000 0.83440  0.51140  0.30310  Biso   1.000  C
  C59      1.0000 0.83440  0.98860  0.80310  Biso   1.000  C
  C60      1.0000 0.16560  0.48860  0.69690  Biso   1.000  C
  H57      1.0000 0.23460  0.00150  0.16490  Biso   1.000  H
  H58      1.0000 0.76540  0.50150  0.33510  Biso   1.000  H
  H59      1.0000 0.76540  0.99850  0.83510  Biso   1.000  H
  H60      1.0000 0.23460  0.49850  0.66490  Biso   1.000  H
  C61      1.0000 0.03440  0.99410  0.16170  Biso   1.000  C
  C62      1.0000 0.96560  0.49410  0.33830  Biso   1.000  C
  C63      1.0000 0.96560  0.00590  0.83830  Biso   1.000  C
  C64      1.0000 0.03440  0.50590  0.66170  Biso   1.000  C
  H61      1.0000 0.01680  0.97180  0.10930  Biso   1.000  H
  H62      1.0000 0.98320  0.47180  0.39070  Biso   1.000  H
  H63      1.0000 0.98320  0.02820  0.89070  Biso   1.000  H
  H64      1.0000 0.01680  0.52820  0.60930  Biso   1.000  H
  C65      1.0000 0.93260  0.01000  0.20470  Biso   1.000  C
  C66      1.0000 0.06740  0.51000  0.29530  Biso   1.000  C
  C67      1.0000 0.06740  0.99000  0.79530  Biso   1.000  C
  C68      1.0000 0.93260  0.49000  0.70470  Biso   1.000  C
  H65      1.0000 0.84500  0.99860  0.18010  Biso   1.000  H
  H66      1.0000 0.15500  0.49860  0.31990  Biso   1.000  H
  H67      1.0000 0.15500  0.00140  0.81990  Biso   1.000  H
  H68      1.0000 0.84500  0.50140  0.68010  Biso   1.000  H
  C69      1.0000 0.19150  0.30580  0.87610  Biso   1.000  C
  C70      1.0000 0.80850  0.80580  0.62390  Biso   1.000  C
  C71      1.0000 0.80850  0.69420  0.12390  Biso   1.000  C
  C72      1.0000 0.19150  0.19420  0.37610  Biso   1.000  C
  C73      1.0000 0.37980  0.32700  0.82090  Biso   1.000  C
  C74      1.0000 0.62020  0.82700  0.67910  Biso   1.000  C
  C75      1.0000 0.62020  0.67300  0.17910  Biso   1.000  C
  C76      1.0000 0.37980  0.17300  0.32090  Biso   1.000  C
  H69      1.0000 0.43960  0.32530  0.77050  Biso   1.000  H
  H70      1.0000 0.56040  0.82530  0.72950  Biso   1.000  H
  H71      1.0000 0.56040  0.67470  0.22950  Biso   1.000  H
  H72      1.0000 0.43960  0.17470  0.27050  Biso   1.000  H
  C77      1.0000 0.40500  0.35460  0.92090  Biso   1.000  C
  C78      1.0000 0.59500  0.85460  0.57910  Biso   1.000  C
  C79      1.0000 0.59500  0.64540  0.07910  Biso   1.000  C
  C80      1.0000 0.40500  0.14540  0.42090  Biso   1.000  C
  H73      1.0000 0.47940  0.37190  0.93570  Biso   1.000  H
  H74      1.0000 0.52060  0.87190  0.56430  Biso   1.000  H
  H75      1.0000 0.52060  0.62810  0.06430  Biso   1.000  H
  H76      1.0000 0.47940  0.12810  0.43570  Biso   1.000  H
  C81      1.0000 0.31860  0.35550  0.99580  Biso   1.000  C
  C82      1.0000 0.68140  0.85550  0.50420  Biso   1.000  C
  C83      1.0000 0.68140  0.64450  0.00420  Biso   1.000  C
  C84      1.0000 0.31860  0.14450  0.49580  Biso   1.000  C
  H77      1.0000 0.33480  0.37360  0.06270  Biso   1.000  H
  H78      1.0000 0.66520  0.87360  0.43730  Biso   1.000  H
  H79      1.0000 0.66520  0.62640  0.93730  Biso   1.000  H
  H80      1.0000 0.33480  0.12640  0.56270  Biso   1.000  H
  C85      1.0000 0.04760  0.25220  0.74900  Biso   1.000  C
  C86      1.0000 0.95240  0.75220  0.75100  Biso   1.000  C
  C87      1.0000 0.95240  0.74780  0.25100  Biso   1.000  C
  C88      1.0000 0.04760  0.24780  0.24900  Biso   1.000  C
  H81      1.0000 0.07420  0.26370  0.67820  Biso   1.000  H
  H82      1.0000 0.92580  0.76370  0.82180  Biso   1.000  H
  H83      1.0000 0.92580  0.73630  0.32180  Biso   1.000  H
  H84      1.0000 0.07420  0.23630  0.17820  Biso   1.000  H
  H85      1.0000 0.94770  0.24930  0.72100  Biso   1.000  H
  H86      1.0000 0.05230  0.74930  0.77900  Biso   1.000  H
  H87      1.0000 0.05230  0.75070  0.27900  Biso   1.000  H
  H88      1.0000 0.94770  0.25070  0.22100  Biso   1.000  H
  C89      1.0000 0.05600  0.18030  0.90100  Biso   1.000  C
  C90      1.0000 0.94400  0.68030  0.59900  Biso   1.000  C
  C91      1.0000 0.94400  0.81970  0.09900  Biso   1.000  C
  C92      1.0000 0.05600  0.31970  0.40100  Biso   1.000  C
  C93      1.0000 0.12840  0.15030  0.97260  Biso   1.000  C
  C94      1.0000 0.87160  0.65030  0.52740  Biso   1.000  C
  C95      1.0000 0.87160  0.84970  0.02740  Biso   1.000  C
  C96      1.0000 0.12840  0.34970  0.47260  Biso   1.000  C
  H89      1.0000 0.21480  0.14380  0.96420  Biso   1.000  H
  H90      1.0000 0.78520  0.64380  0.53580  Biso   1.000  H
  H91      1.0000 0.78520  0.85620  0.03580  Biso   1.000  H
  H92      1.0000 0.21480  0.35620  0.46420  Biso   1.000  H
  C97      1.0000 0.07900  0.12920  0.05640  Biso   1.000  C
  C98      1.0000 0.92100  0.62920  0.44360  Biso   1.000  C
  C99      1.0000 0.92100  0.87080  0.94360  Biso   1.000  C
  C100     1.0000 0.07900  0.37080  0.55640  Biso   1.000  C
  H93      1.0000 0.12960  0.10810  0.10130  Biso   1.000  H
  H94      1.0000 0.87040  0.60810  0.39870  Biso   1.000  H
  H95      1.0000 0.87040  0.89190  0.89870  Biso   1.000  H
  H96      1.0000 0.12960  0.39190  0.60130  Biso   1.000  H
  C101     1.0000 0.95530  0.13930  0.07410  Biso   1.000  C
  C102     1.0000 0.04470  0.63930  0.42590  Biso   1.000  C
  C103     1.0000 0.04470  0.86070  0.92590  Biso   1.000  C
  C104     1.0000 0.95530  0.36070  0.57410  Biso   1.000  C
  H97      1.0000 0.92380  0.12570  0.13440  Biso   1.000  H
  H98      1.0000 0.07620  0.62570  0.36560  Biso   1.000  H
  H99      1.0000 0.07620  0.87430  0.86560  Biso   1.000  H
  H100     1.0000 0.92380  0.37430  0.63440  Biso   1.000  H
  C105     1.0000 0.87850  0.16850  0.00560  Biso   1.000  C
  C106     1.0000 0.12150  0.66850  0.49440  Biso   1.000  C
  C107     1.0000 0.12150  0.83150  0.99440  Biso   1.000  C
  C108     1.0000 0.87850  0.33150  0.50560  Biso   1.000  C
  H101     1.0000 0.79270  0.17470  0.01600  Biso   1.000  H
  H102     1.0000 0.20730  0.67470  0.48400  Biso   1.000  H
  H103     1.0000 0.20730  0.82530  0.98400  Biso   1.000  H
  H104     1.0000 0.79270  0.32530  0.51600  Biso   1.000  H
  C109     1.0000 0.92900  0.18990  0.91750  Biso   1.000  C
  C110     1.0000 0.07100  0.68990  0.58250  Biso   1.000  C
  C111     1.0000 0.07100  0.81010  0.08250  Biso   1.000  C
  C112     1.0000 0.92900  0.31010  0.41750  Biso   1.000  C
  H105     1.0000 0.87690  0.21050  0.87050  Biso   1.000  H
  H106     1.0000 0.12310  0.71050  0.62950  Biso   1.000  H
  H107     1.0000 0.12310  0.78950  0.12950  Biso   1.000  H
  H108     1.0000 0.87690  0.28950  0.37050  Biso   1.000  H
  C113     1.0000 0.30490  0.21140  0.87220  Biso   1.000  C
  C114     1.0000 0.69510  0.71140  0.62780  Biso   1.000  C
  C115     1.0000 0.69510  0.78860  0.12780  Biso   1.000  C
  C116     1.0000 0.30490  0.28860  0.37220  Biso   1.000  C
  C117     1.0000 0.40670  0.20630  0.81060  Biso   1.000  C
  C118     1.0000 0.59330  0.70630  0.68940  Biso   1.000  C
  C119     1.0000 0.59330  0.79370  0.18940  Biso   1.000  C
  C120     1.0000 0.40670  0.29370  0.31060  Biso   1.000  C
  H109     1.0000 0.38240  0.19660  0.72710  Biso   1.000  H
  H110     1.0000 0.61760  0.69660  0.77290  Biso   1.000  H
  H111     1.0000 0.61760  0.80340  0.27290  Biso   1.000  H
  H112     1.0000 0.38240  0.30340  0.22710  Biso   1.000  H
  C121     1.0000 0.54110  0.21550  0.87100  Biso   1.000  C
  C122     1.0000 0.45890  0.71550  0.62900  Biso   1.000  C
  C123     1.0000 0.45890  0.78450  0.12900  Biso   1.000  C
  C124     1.0000 0.54110  0.28450  0.37100  Biso   1.000  C
  H113     1.0000 0.60810  0.21280  0.82840  Biso   1.000  H
  H114     1.0000 0.39190  0.71280  0.67160  Biso   1.000  H
  H115     1.0000 0.39190  0.78720  0.17160  Biso   1.000  H
  H116     1.0000 0.60810  0.28720  0.32840  Biso   1.000  H
  C125     1.0000 0.57760  0.22890  0.99850  Biso   1.000  C
  C126     1.0000 0.42240  0.72890  0.50150  Biso   1.000  C
  C127     1.0000 0.42240  0.77110  0.00150  Biso   1.000  C
  C128     1.0000 0.57760  0.27110  0.49850  Biso   1.000  C
  H117     1.0000 0.66870  0.23630  0.03890  Biso   1.000  H
  H118     1.0000 0.33130  0.73630  0.46110  Biso   1.000  H
  H119     1.0000 0.33130  0.76370  0.96110  Biso   1.000  H
  H120     1.0000 0.66870  0.26370  0.53890  Biso   1.000  H
  C129     1.0000 0.48260  0.23130  0.06360  Biso   1.000  C
  C130     1.0000 0.51740  0.73130  0.43640  Biso   1.000  C
  C131     1.0000 0.51740  0.76870  0.93640  Biso   1.000  C
  C132     1.0000 0.48260  0.26870  0.56360  Biso   1.000  C
  H121     1.0000 0.50970  0.23810  0.15020  Biso   1.000  H
  H122     1.0000 0.49030  0.73810  0.34980  Biso   1.000  H
  H123     1.0000 0.49030  0.76190  0.84980  Biso   1.000  H
  H124     1.0000 0.50970  0.26190  0.65020  Biso   1.000  H
  C133     1.0000 0.34350  0.22370  0.99960  Biso   1.000  C
  C134     1.0000 0.65650  0.72370  0.50040  Biso   1.000  C
  C135     1.0000 0.65650  0.77630  0.00040  Biso   1.000  C
  C136     1.0000 0.34350  0.27630  0.49960  Biso   1.000  C
  H125     1.0000 0.27680  0.22680  0.04210  Biso   1.000  H
  H126     1.0000 0.72320  0.72680  0.45790  Biso   1.000  H
  H127     1.0000 0.72320  0.77320  0.95790  Biso   1.000  H
  H128     1.0000 0.27680  0.27320  0.54210  Biso   1.000  H
