data_image0
_cell_length_a       7.668
_cell_length_b       8.492
_cell_length_c       9.174
_cell_angle_alpha    96.9
_cell_angle_beta     114.06
_cell_angle_gamma    107.49

_symmetry_space_group_name_H-M    "P 1"
_symmetry_int_tables_number       1

loop_
  _symmetry_equiv_pos_as_xyz
  'x, y, z'

loop_
  _atom_site_label
  _atom_site_occupancy
  _atom_site_fract_x
  _atom_site_fract_y
  _atom_site_fract_z
  _atom_site_thermal_displace_type
  _atom_site_B_iso_or_equiv
  _atom_site_type_symbol
  Cu1      1.0000 0.04784  0.17971  0.48404  Biso   1.000  Cu
  Cu2      1.0000 0.95216  0.82029  0.51596  Biso   1.000  Cu
  Br1      1.0000 0.30555  0.05897  0.66728  Biso   1.000  Br
  Br2      1.0000 0.69445  0.94103  0.33272  Biso   1.000  Br
  N1       1.0000 0.13290  0.21320  0.29870  Biso   1.000  N
  N2       1.0000 0.86710  0.78680  0.70130  Biso   1.000  N
  C1       1.0000 0.05640  0.29480  0.18410  Biso   1.000  C
  C2       1.0000 0.94360  0.70520  0.81590  Biso   1.000  C
  C3       1.0000 0.08230  0.28580  0.04260  Biso   1.000  C
  C4       1.0000 0.91770  0.71420  0.95740  Biso   1.000  C
  H1       1.0000 0.02180  0.34070  0.96290  Biso   1.000  H
  H2       1.0000 0.97820  0.65930  0.03710  Biso   1.000  H
  C5       1.0000 0.19760  0.19580  0.01820  Biso   1.000  C
  C6       1.0000 0.80240  0.80420  0.98180  Biso   1.000  C
  H3       1.0000 0.21840  0.18900  0.92280  Biso   1.000  H
  H4       1.0000 0.78160  0.81100  0.07720  Biso   1.000  H
  C7       1.0000 0.28080  0.11670  0.13690  Biso   1.000  C
  C8       1.0000 0.71920  0.88330  0.86310  Biso   1.000  C
  H5       1.0000 0.36210  0.05580  0.12510  Biso   1.000  H
  H6       1.0000 0.63790  0.94420  0.87490  Biso   1.000  H
  C9       1.0000 0.24430  0.12700  0.27370  Biso   1.000  C
  C10      1.0000 0.75570  0.87300  0.72630  Biso   1.000  C
  H7       1.0000 0.30070  0.07060  0.35340  Biso   1.000  H
  H8       1.0000 0.69930  0.92940  0.64660  Biso   1.000  H
  N3       1.0000 0.90300  0.61940  0.33940  Biso   1.000  N
  N4       1.0000 0.09700  0.38060  0.66060  Biso   1.000  N
  N5       1.0000 0.03980  0.54650  0.34000  Biso   1.000  N
  N6       1.0000 0.96020  0.45350  0.66000  Biso   1.000  N
  C11      1.0000 0.94160  0.39690  0.21570  Biso   1.000  C
  C12      1.0000 0.05840  0.60310  0.78430  Biso   1.000  C
  C13      1.0000 0.73650  0.37280  0.12940  Biso   1.000  C
  C14      1.0000 0.26350  0.62720  0.87060  Biso   1.000  C
  H9       1.0000 0.62970  0.28140  0.03490  Biso   1.000  H
  H10      1.0000 0.37030  0.71860  0.96510  Biso   1.000  H
  C15      1.0000 0.72100  0.51390  0.21270  Biso   1.000  C
  C16      1.0000 0.27900  0.48610  0.78730  Biso   1.000  C
  H11      1.0000 0.59580  0.53200  0.18230  Biso   1.000  H
  H12      1.0000 0.40420  0.46800  0.81770  Biso   1.000  H
  C17      1.0000 0.26040  0.63660  0.44880  Biso   1.000  C
  C18      1.0000 0.73960  0.36340  0.55120  Biso   1.000  C
  H13      1.0000 0.28340  0.70640  0.55300  Biso   1.000  H
  H14      1.0000 0.71660  0.29360  0.44700  Biso   1.000  H
  H15      1.0000 0.32160  0.71130  0.39430  Biso   1.000  H
  H16      1.0000 0.67840  0.28870  0.60570  Biso   1.000  H
  H17      1.0000 0.32520  0.55290  0.47240  Biso   1.000  H
  H18      1.0000 0.67480  0.44710  0.52760  Biso   1.000  H
