data_image0
_cell_length_a       11.127
_cell_length_b       12.274
_cell_length_c       12.334
_cell_angle_alpha    90
_cell_angle_beta     92.299
_cell_angle_gamma    90

_symmetry_space_group_name_H-M    "P 1"
_symmetry_int_tables_number       1

loop_
  _symmetry_equiv_pos_as_xyz
  'x, y, z'

loop_
  _atom_site_label
  _atom_site_occupancy
  _atom_site_fract_x
  _atom_site_fract_y
  _atom_site_fract_z
  _atom_site_thermal_displace_type
  _atom_site_B_iso_or_equiv
  _atom_site_type_symbol
  Cu1      1.0000 0.04797  0.27242  0.90617  Biso   1.000  Cu
  Cu2      1.0000 0.45203  0.77242  0.59383  Biso   1.000  Cu
  Cu3      1.0000 0.95203  0.72758  0.09383  Biso   1.000  Cu
  Cu4      1.0000 0.54797  0.22758  0.40617  Biso   1.000  Cu
  Cu5      1.0000 0.02866  0.81073  0.71167  Biso   1.000  Cu
  Cu6      1.0000 0.47134  0.31073  0.78833  Biso   1.000  Cu
  Cu7      1.0000 0.97134  0.18927  0.28833  Biso   1.000  Cu
  Cu8      1.0000 0.52866  0.68927  0.21167  Biso   1.000  Cu
  N1       1.0000 0.98000  0.15350  0.79690  Biso   1.000  N
  N2       1.0000 0.52000  0.65350  0.70310  Biso   1.000  N
  N3       1.0000 0.02000  0.84650  0.20310  Biso   1.000  N
  N4       1.0000 0.48000  0.34650  0.29690  Biso   1.000  N
  N5       1.0000 0.97430  0.97520  0.72150  Biso   1.000  N
  N6       1.0000 0.52570  0.47520  0.77850  Biso   1.000  N
  N7       1.0000 0.02570  0.02480  0.27850  Biso   1.000  N
  N8       1.0000 0.47430  0.52480  0.22150  Biso   1.000  N
  N9       1.0000 0.07790  0.01070  0.88210  Biso   1.000  N
  N10      1.0000 0.42210  0.51070  0.61790  Biso   1.000  N
  N11      1.0000 0.92210  0.98930  0.11790  Biso   1.000  N
  N12      1.0000 0.57790  0.48930  0.38210  Biso   1.000  N
  H1       1.0000 0.10230  0.05470  0.93260  Biso   1.000  H
  H2       1.0000 0.39770  0.55470  0.56740  Biso   1.000  H
  H3       1.0000 0.89770  0.94530  0.06740  Biso   1.000  H
  H4       1.0000 0.60230  0.44530  0.43260  Biso   1.000  H
  H5       1.0000 0.09790  0.94310  0.88530  Biso   1.000  H
  H6       1.0000 0.40210  0.44310  0.61470  Biso   1.000  H
  H7       1.0000 0.90210  0.05690  0.11470  Biso   1.000  H
  H8       1.0000 0.59790  0.55690  0.38530  Biso   1.000  H
  N13      1.0000 0.94470  0.36440  0.79460  Biso   1.000  N
  N14      1.0000 0.55530  0.86440  0.70540  Biso   1.000  N
  N15      1.0000 0.05530  0.63560  0.20540  Biso   1.000  N
  N16      1.0000 0.44470  0.13560  0.29460  Biso   1.000  N
  N17      1.0000 0.90440  0.82540  0.58170  Biso   1.000  N
  N18      1.0000 0.59560  0.32540  0.91830  Biso   1.000  N
  N19      1.0000 0.09560  0.17460  0.41830  Biso   1.000  N
  N20      1.0000 0.40440  0.67460  0.08170  Biso   1.000  N
  N21      1.0000 0.21840  0.28030  0.86610  Biso   1.000  N
  N22      1.0000 0.28160  0.78030  0.63390  Biso   1.000  N
  N23      1.0000 0.78160  0.71970  0.13390  Biso   1.000  N
  N24      1.0000 0.71840  0.21970  0.36610  Biso   1.000  N
  N25      1.0000 0.01430  0.24640  0.14740  Biso   1.000  N
  N26      1.0000 0.48570  0.74640  0.35260  Biso   1.000  N
  N27      1.0000 0.98570  0.75360  0.85260  Biso   1.000  N
  N28      1.0000 0.51430  0.25360  0.64740  Biso   1.000  N
  C1       1.0000 0.00840  0.04770  0.79800  Biso   1.000  C
  C2       1.0000 0.49160  0.54770  0.70200  Biso   1.000  C
  C3       1.0000 0.99160  0.95230  0.20200  Biso   1.000  C
  C4       1.0000 0.50840  0.45230  0.29800  Biso   1.000  C
  C5       1.0000 0.90340  0.01150  0.63900  Biso   1.000  C
  C6       1.0000 0.59660  0.51150  0.86100  Biso   1.000  C
  C7       1.0000 0.09660  0.98850  0.36100  Biso   1.000  C
  C8       1.0000 0.40340  0.48850  0.13900  Biso   1.000  C
  C9       1.0000 0.87080  0.12020  0.63090  Biso   1.000  C
  C10      1.0000 0.62920  0.62020  0.86910  Biso   1.000  C
  C11      1.0000 0.12920  0.87980  0.36910  Biso   1.000  C
  C12      1.0000 0.37080  0.37980  0.13090  Biso   1.000  C
  H9       1.0000 0.82280  0.14560  0.57280  Biso   1.000  H
  H10      1.0000 0.67720  0.64560  0.92720  Biso   1.000  H
  H11      1.0000 0.17720  0.85440  0.42720  Biso   1.000  H
  H12      1.0000 0.32280  0.35440  0.07280  Biso   1.000  H
  C13      1.0000 0.91260  0.18970  0.71240  Biso   1.000  C
  C14      1.0000 0.58740  0.68970  0.78760  Biso   1.000  C
  C15      1.0000 0.08740  0.81030  0.28760  Biso   1.000  C
  C16      1.0000 0.41260  0.31030  0.21240  Biso   1.000  C
  C17      1.0000 0.88960  0.30910  0.71150  Biso   1.000  C
  C18      1.0000 0.61040  0.80910  0.78850  Biso   1.000  C
  C19      1.0000 0.11040  0.69090  0.28850  Biso   1.000  C
  C20      1.0000 0.38960  0.19090  0.21150  Biso   1.000  C
  C21      1.0000 0.81910  0.36040  0.63350  Biso   1.000  C
  C22      1.0000 0.68090  0.86040  0.86650  Biso   1.000  C
  C23      1.0000 0.18090  0.63960  0.36650  Biso   1.000  C
  C24      1.0000 0.31910  0.13960  0.13350  Biso   1.000  C
  H13      1.0000 0.78070  0.32030  0.57830  Biso   1.000  H
  H14      1.0000 0.71930  0.82030  0.92170  Biso   1.000  H
  H15      1.0000 0.21930  0.67970  0.42170  Biso   1.000  H
  H16      1.0000 0.28070  0.17970  0.07830  Biso   1.000  H
  C25      1.0000 0.80540  0.47280  0.63750  Biso   1.000  C
  C26      1.0000 0.69460  0.97280  0.86250  Biso   1.000  C
  C27      1.0000 0.19460  0.52720  0.36250  Biso   1.000  C
  C28      1.0000 0.30540  0.02720  0.13750  Biso   1.000  C
  H17      1.0000 0.75830  0.50910  0.58500  Biso   1.000  H
  H18      1.0000 0.74170  0.00910  0.91500  Biso   1.000  H
  H19      1.0000 0.24170  0.49090  0.41500  Biso   1.000  H
  H20      1.0000 0.25830  0.99090  0.08500  Biso   1.000  H
  C29      1.0000 0.86260  0.52910  0.72040  Biso   1.000  C
  C30      1.0000 0.63740  0.02910  0.77960  Biso   1.000  C
  C31      1.0000 0.13740  0.47090  0.27960  Biso   1.000  C
  C32      1.0000 0.36260  0.97090  0.22040  Biso   1.000  C
  H21      1.0000 0.85610  0.60450  0.72460  Biso   1.000  H
  H22      1.0000 0.64390  0.10450  0.77540  Biso   1.000  H
  H23      1.0000 0.14390  0.39550  0.27540  Biso   1.000  H
  H24      1.0000 0.35610  0.89550  0.22460  Biso   1.000  H
  C33      1.0000 0.92960  0.47240  0.79690  Biso   1.000  C
  C34      1.0000 0.57040  0.97240  0.70310  Biso   1.000  C
  C35      1.0000 0.07040  0.52760  0.20310  Biso   1.000  C
  C36      1.0000 0.42960  0.02760  0.29690  Biso   1.000  C
  H25      1.0000 0.96670  0.51120  0.85370  Biso   1.000  H
  H26      1.0000 0.53330  0.01120  0.64630  Biso   1.000  H
  H27      1.0000 0.03330  0.48880  0.14630  Biso   1.000  H
  H28      1.0000 0.46670  0.98880  0.35370  Biso   1.000  H
  C37      1.0000 0.86580  0.92700  0.55850  Biso   1.000  C
  C38      1.0000 0.63420  0.42700  0.94150  Biso   1.000  C
  C39      1.0000 0.13420  0.07300  0.44150  Biso   1.000  C
  C40      1.0000 0.36580  0.57300  0.05850  Biso   1.000  C
  C41      1.0000 0.79680  0.94980  0.46530  Biso   1.000  C
  C42      1.0000 0.70320  0.44980  0.03470  Biso   1.000  C
  C43      1.0000 0.20320  0.05020  0.53470  Biso   1.000  C
  C44      1.0000 0.29680  0.55020  0.96530  Biso   1.000  C
  H29      1.0000 0.76890  0.02010  0.45180  Biso   1.000  H
  H30      1.0000 0.73110  0.52010  0.04820  Biso   1.000  H
  H31      1.0000 0.23110  0.97990  0.54820  Biso   1.000  H
  H32      1.0000 0.26890  0.47990  0.95180  Biso   1.000  H
  C45      1.0000 0.77010  0.86730  0.39310  Biso   1.000  C
  C46      1.0000 0.72990  0.36730  0.10690  Biso   1.000  C
  C47      1.0000 0.22990  0.13270  0.60690  Biso   1.000  C
  C48      1.0000 0.27010  0.63270  0.89310  Biso   1.000  C
  H33      1.0000 0.72450  0.88140  0.32980  Biso   1.000  H
  H34      1.0000 0.77550  0.38140  0.17020  Biso   1.000  H
  H35      1.0000 0.27550  0.11860  0.67020  Biso   1.000  H
  H36      1.0000 0.22450  0.61860  0.82980  Biso   1.000  H
  C49      1.0000 0.81080  0.76470  0.41480  Biso   1.000  C
  C50      1.0000 0.68920  0.26470  0.08520  Biso   1.000  C
  C51      1.0000 0.18920  0.23530  0.58520  Biso   1.000  C
  C52      1.0000 0.31080  0.73530  0.91480  Biso   1.000  C
  H37      1.0000 0.79350  0.70760  0.36710  Biso   1.000  H
  H38      1.0000 0.70650  0.20760  0.13290  Biso   1.000  H
  H39      1.0000 0.20650  0.29240  0.63290  Biso   1.000  H
  H40      1.0000 0.29350  0.79240  0.86710  Biso   1.000  H
  C53      1.0000 0.87830  0.74760  0.50900  Biso   1.000  C
  C54      1.0000 0.62170  0.24760  0.99100  Biso   1.000  C
  C55      1.0000 0.12170  0.25240  0.49100  Biso   1.000  C
  C56      1.0000 0.37830  0.75240  0.00900  Biso   1.000  C
  H41      1.0000 0.90740  0.67780  0.52280  Biso   1.000  H
  H42      1.0000 0.59260  0.17780  0.97720  Biso   1.000  H
  H43      1.0000 0.09260  0.32220  0.47720  Biso   1.000  H
  H44      1.0000 0.40740  0.82220  0.02280  Biso   1.000  H
  C57      1.0000 0.31540  0.28740  0.83800  Biso   1.000  C
  C58      1.0000 0.18460  0.78740  0.66200  Biso   1.000  C
  C59      1.0000 0.68460  0.71260  0.16200  Biso   1.000  C
  C60      1.0000 0.81540  0.21260  0.33800  Biso   1.000  C
  C61      1.0000 0.02400  0.26180  0.05630  Biso   1.000  C
  C62      1.0000 0.47600  0.76180  0.44370  Biso   1.000  C
  C63      1.0000 0.97600  0.73820  0.94370  Biso   1.000  C
  C64      1.0000 0.52400  0.23820  0.55630  Biso   1.000  C
