data_image0
_cell_length_a       11.743
_cell_length_b       15.539
_cell_length_c       8.085
_cell_angle_alpha    90
_cell_angle_beta     98.038
_cell_angle_gamma    90

_symmetry_space_group_name_H-M    "P 1"
_symmetry_int_tables_number       1

loop_
  _symmetry_equiv_pos_as_xyz
  'x, y, z'

loop_
  _atom_site_label
  _atom_site_occupancy
  _atom_site_fract_x
  _atom_site_fract_y
  _atom_site_fract_z
  _atom_site_thermal_displace_type
  _atom_site_B_iso_or_equiv
  _atom_site_type_symbol
  Cu1      1.0000 0.04090  0.15470  0.16190  Biso   1.000  Cu
  Cu2      1.0000 0.95910  0.65470  0.33810  Biso   1.000  Cu
  Cu3      1.0000 0.95910  0.84530  0.83810  Biso   1.000  Cu
  Cu4      1.0000 0.04090  0.34530  0.66190  Biso   1.000  Cu
  N1       1.0000 0.91178  0.06317  0.16750  Biso   1.000  N
  N2       1.0000 0.08822  0.56317  0.33250  Biso   1.000  N
  N3       1.0000 0.08822  0.93683  0.83250  Biso   1.000  N
  N4       1.0000 0.91178  0.43683  0.66750  Biso   1.000  N
  N5       1.0000 0.71640  0.01517  0.13180  Biso   1.000  N
  N6       1.0000 0.28360  0.51517  0.36820  Biso   1.000  N
  N7       1.0000 0.28360  0.98483  0.86820  Biso   1.000  N
  N8       1.0000 0.71640  0.48483  0.63180  Biso   1.000  N
  N9       1.0000 0.76710  0.14575  0.02770  Biso   1.000  N
  N10      1.0000 0.23290  0.64575  0.47230  Biso   1.000  N
  N11      1.0000 0.23290  0.85425  0.97230  Biso   1.000  N
  N12      1.0000 0.76710  0.35425  0.52770  Biso   1.000  N
  H1       1.0000 0.69590  0.15500  0.99070  Biso   1.000  H
  H2       1.0000 0.30410  0.65500  0.50930  Biso   1.000  H
  H3       1.0000 0.30410  0.84500  0.00930  Biso   1.000  H
  H4       1.0000 0.69590  0.34500  0.49070  Biso   1.000  H
  H5       1.0000 0.81820  0.18340  0.01210  Biso   1.000  H
  H6       1.0000 0.18180  0.68340  0.48790  Biso   1.000  H
  H7       1.0000 0.18180  0.81660  0.98790  Biso   1.000  H
  H8       1.0000 0.81820  0.31660  0.51210  Biso   1.000  H
  N13      1.0000 0.13400  0.04713  0.26270  Biso   1.000  N
  N14      1.0000 0.86600  0.54713  0.23730  Biso   1.000  N
  N15      1.0000 0.86600  0.95287  0.73730  Biso   1.000  N
  N16      1.0000 0.13400  0.45287  0.76270  Biso   1.000  N
  N17      1.0000 0.46050  0.83937  0.18560  Biso   1.000  N
  N18      1.0000 0.53950  0.33937  0.31440  Biso   1.000  N
  N19      1.0000 0.53950  0.16063  0.81440  Biso   1.000  N
  N20      1.0000 0.46050  0.66063  0.68560  Biso   1.000  N
  N21      1.0000 0.04300  0.23006  0.36190  Biso   1.000  N
  N22      1.0000 0.95700  0.73006  0.13810  Biso   1.000  N
  N23      1.0000 0.95700  0.76994  0.63810  Biso   1.000  N
  N24      1.0000 0.04300  0.26994  0.86190  Biso   1.000  N
  C1       1.0000 0.79870  0.07207  0.11030  Biso   1.000  C
  C2       1.0000 0.20130  0.57207  0.38970  Biso   1.000  C
  C3       1.0000 0.20130  0.92793  0.88970  Biso   1.000  C
  C4       1.0000 0.79870  0.42793  0.61030  Biso   1.000  C
  C5       1.0000 0.75060  0.94343  0.21600  Biso   1.000  C
  C6       1.0000 0.24940  0.44343  0.28400  Biso   1.000  C
  C7       1.0000 0.24940  0.05657  0.78400  Biso   1.000  C
  C8       1.0000 0.75060  0.55657  0.71600  Biso   1.000  C
  C9       1.0000 0.86490  0.92802  0.27570  Biso   1.000  C
  C10      1.0000 0.13510  0.42802  0.22430  Biso   1.000  C
  C11      1.0000 0.13510  0.07198  0.72430  Biso   1.000  C
  C12      1.0000 0.86490  0.57198  0.77570  Biso   1.000  C
  H9       1.0000 0.88750  0.87780  0.33380  Biso   1.000  H
  H10      1.0000 0.11250  0.37780  0.16620  Biso   1.000  H
  H11      1.0000 0.11250  0.12220  0.66620  Biso   1.000  H
  H12      1.0000 0.88750  0.62220  0.83380  Biso   1.000  H
  C13      1.0000 0.94430  0.98960  0.24650  Biso   1.000  C
  C14      1.0000 0.05570  0.48960  0.25350  Biso   1.000  C
  C15      1.0000 0.05570  0.01040  0.75350  Biso   1.000  C
  C16      1.0000 0.94430  0.51040  0.74650  Biso   1.000  C
  C17      1.0000 0.06970  0.98068  0.30080  Biso   1.000  C
  C18      1.0000 0.93030  0.48068  0.19920  Biso   1.000  C
  C19      1.0000 0.93030  0.01932  0.69920  Biso   1.000  C
  C20      1.0000 0.06970  0.51932  0.80080  Biso   1.000  C
  C21      1.0000 0.11790  0.90900  0.38510  Biso   1.000  C
  C22      1.0000 0.88210  0.40900  0.11490  Biso   1.000  C
  C23      1.0000 0.88210  0.09100  0.61490  Biso   1.000  C
  C24      1.0000 0.11790  0.59100  0.88510  Biso   1.000  C
  H13      1.0000 0.07160  0.86330  0.40890  Biso   1.000  H
  H14      1.0000 0.92840  0.36330  0.09110  Biso   1.000  H
  H15      1.0000 0.92840  0.13670  0.59110  Biso   1.000  H
  H16      1.0000 0.07160  0.63670  0.90890  Biso   1.000  H
  C25      1.0000 0.23470  0.90610  0.43310  Biso   1.000  C
  C26      1.0000 0.76530  0.40610  0.06690  Biso   1.000  C
  C27      1.0000 0.76530  0.09390  0.56690  Biso   1.000  C
  C28      1.0000 0.23470  0.59390  0.93310  Biso   1.000  C
  H17      1.0000 0.26850  0.85860  0.49030  Biso   1.000  H
  H18      1.0000 0.73150  0.35860  0.00970  Biso   1.000  H
  H19      1.0000 0.73150  0.14140  0.50970  Biso   1.000  H
  H20      1.0000 0.26850  0.64140  0.99030  Biso   1.000  H
  C29      1.0000 0.30040  0.97370  0.39560  Biso   1.000  C
  C30      1.0000 0.69960  0.47370  0.10440  Biso   1.000  C
  C31      1.0000 0.69960  0.02630  0.60440  Biso   1.000  C
  C32      1.0000 0.30040  0.52630  0.89560  Biso   1.000  C
  H21      1.0000 0.37970  0.97310  0.42670  Biso   1.000  H
  H22      1.0000 0.62030  0.47310  0.07330  Biso   1.000  H
  H23      1.0000 0.62030  0.02690  0.57330  Biso   1.000  H
  H24      1.0000 0.37970  0.52690  0.92670  Biso   1.000  H
  C33      1.0000 0.24740  0.04270  0.31110  Biso   1.000  C
  C34      1.0000 0.75260  0.54270  0.18890  Biso   1.000  C
  C35      1.0000 0.75260  0.95730  0.68890  Biso   1.000  C
  C36      1.0000 0.24740  0.45730  0.81110  Biso   1.000  C
  H25      1.0000 0.29270  0.08870  0.28630  Biso   1.000  H
  H26      1.0000 0.70730  0.58870  0.21370  Biso   1.000  H
  H27      1.0000 0.70730  0.91130  0.71370  Biso   1.000  H
  H28      1.0000 0.29270  0.41130  0.78630  Biso   1.000  H
  C37      1.0000 0.54620  0.89390  0.17230  Biso   1.000  C
  C38      1.0000 0.45380  0.39390  0.32770  Biso   1.000  C
  C39      1.0000 0.45380  0.10610  0.82770  Biso   1.000  C
  C40      1.0000 0.54620  0.60610  0.67230  Biso   1.000  C
  H29      1.0000 0.52860  0.94460  0.11310  Biso   1.000  H
  H30      1.0000 0.47140  0.44460  0.38690  Biso   1.000  H
  H31      1.0000 0.47140  0.05540  0.88690  Biso   1.000  H
  H32      1.0000 0.52860  0.55540  0.61310  Biso   1.000  H
  C41      1.0000 0.65940  0.88065  0.24010  Biso   1.000  C
  C42      1.0000 0.34060  0.38065  0.25990  Biso   1.000  C
  C43      1.0000 0.34060  0.11935  0.75990  Biso   1.000  C
  C44      1.0000 0.65940  0.61935  0.74010  Biso   1.000  C
  C45      1.0000 0.68250  0.80460  0.32810  Biso   1.000  C
  C46      1.0000 0.31750  0.30460  0.17190  Biso   1.000  C
  C47      1.0000 0.31750  0.19540  0.67190  Biso   1.000  C
  C48      1.0000 0.68250  0.69540  0.82810  Biso   1.000  C
  H33      1.0000 0.75730  0.79160  0.37560  Biso   1.000  H
  H34      1.0000 0.24270  0.29160  0.12440  Biso   1.000  H
  H35      1.0000 0.24270  0.20840  0.62440  Biso   1.000  H
  H36      1.0000 0.75730  0.70840  0.87560  Biso   1.000  H
  C49      1.0000 0.59450  0.74840  0.34480  Biso   1.000  C
  C50      1.0000 0.40550  0.24840  0.15520  Biso   1.000  C
  C51      1.0000 0.40550  0.25160  0.65520  Biso   1.000  C
  C52      1.0000 0.59450  0.75160  0.84480  Biso   1.000  C
  H37      1.0000 0.60890  0.69760  0.40490  Biso   1.000  H
  H38      1.0000 0.39110  0.19760  0.09510  Biso   1.000  H
  H39      1.0000 0.39110  0.30240  0.59510  Biso   1.000  H
  H40      1.0000 0.60890  0.80240  0.90490  Biso   1.000  H
  C53      1.0000 0.48600  0.76800  0.27260  Biso   1.000  C
  C54      1.0000 0.51400  0.26800  0.22740  Biso   1.000  C
  C55      1.0000 0.51400  0.23200  0.72740  Biso   1.000  C
  C56      1.0000 0.48600  0.73200  0.77260  Biso   1.000  C
  H41      1.0000 0.42700  0.72960  0.28480  Biso   1.000  H
  H42      1.0000 0.57300  0.22960  0.21520  Biso   1.000  H
  H43      1.0000 0.57300  0.27040  0.71520  Biso   1.000  H
  H44      1.0000 0.42700  0.77040  0.78480  Biso   1.000  H
  C57      1.0000 0.04520  0.27886  0.46790  Biso   1.000  C
  C58      1.0000 0.95480  0.77886  0.03210  Biso   1.000  C
  C59      1.0000 0.95480  0.72114  0.53210  Biso   1.000  C
  C60      1.0000 0.04520  0.22114  0.96790  Biso   1.000  C
