data_image0
_cell_length_a       7.72
_cell_length_b       9.76
_cell_length_c       12.21
_cell_angle_alpha    97.85
_cell_angle_beta     94.85
_cell_angle_gamma    90.85

_symmetry_space_group_name_H-M    "P 1"
_symmetry_int_tables_number       1

loop_
  _symmetry_equiv_pos_as_xyz
  'x, y, z'

loop_
  _atom_site_label
  _atom_site_occupancy
  _atom_site_fract_x
  _atom_site_fract_y
  _atom_site_fract_z
  _atom_site_thermal_displace_type
  _atom_site_B_iso_or_equiv
  _atom_site_type_symbol
  Cu1      1.0000 0.07075  0.24555  0.80168  Biso   1.000  Cu
  Cu2      1.0000 0.92925  0.75445  0.19832  Biso   1.000  Cu
  Cu3      1.0000 0.36870  0.99897  0.08631  Biso   1.000  Cu
  Cu4      1.0000 0.63130  0.00103  0.91369  Biso   1.000  Cu
  Cu5      1.0000 0.83790  0.47540  0.49640  Biso   1.000  Cu
  Cu6      1.0000 0.16210  0.52460  0.50360  Biso   1.000  Cu
  N1       1.0000 0.51280  0.98660  0.23350  Biso   1.000  N
  N2       1.0000 0.48720  0.01340  0.76650  Biso   1.000  N
  N3       1.0000 0.67680  0.08010  0.40760  Biso   1.000  N
  N4       1.0000 0.32320  0.91990  0.59240  Biso   1.000  N
  N5       1.0000 0.59580  0.22210  0.27160  Biso   1.000  N
  N6       1.0000 0.40420  0.77790  0.72840  Biso   1.000  N
  H1       1.0000 0.54440  0.23420  0.20850  Biso   1.000  H
  H2       1.0000 0.45560  0.76580  0.79150  Biso   1.000  H
  H3       1.0000 0.64700  0.29080  0.31420  Biso   1.000  H
  H4       1.0000 0.35300  0.70920  0.68580  Biso   1.000  H
  N7       1.0000 0.34350  0.78760  0.09130  Biso   1.000  N
  N8       1.0000 0.65650  0.21240  0.90870  Biso   1.000  N
  N9       1.0000 0.94520  0.05830  0.71440  Biso   1.000  N
  N10      1.0000 0.05480  0.94170  0.28560  Biso   1.000  N
  N11      1.0000 0.18210  0.18370  0.93480  Biso   1.000  N
  N12      1.0000 0.81790  0.81630  0.06520  Biso   1.000  N
  N13      1.0000 0.04610  0.38850  0.70730  Biso   1.000  N
  N14      1.0000 0.95390  0.61150  0.29270  Biso   1.000  N
  N15      1.0000 0.57080  0.47780  0.47950  Biso   1.000  N
  N16      1.0000 0.42920  0.52220  0.52050  Biso   1.000  N
  C1       1.0000 0.59610  0.09280  0.30430  Biso   1.000  C
  C2       1.0000 0.40390  0.90720  0.69570  Biso   1.000  C
  C3       1.0000 0.68950  0.95190  0.43600  Biso   1.000  C
  C4       1.0000 0.31050  0.04810  0.56400  Biso   1.000  C
  C5       1.0000 0.59810  0.83320  0.36940  Biso   1.000  C
  C6       1.0000 0.40190  0.16680  0.63060  Biso   1.000  C
  H5       1.0000 0.59450  0.74690  0.39320  Biso   1.000  H
  H6       1.0000 0.40550  0.25310  0.60680  Biso   1.000  H
  C7       1.0000 0.51650  0.85690  0.26790  Biso   1.000  C
  C8       1.0000 0.48350  0.14310  0.73210  Biso   1.000  C
  C9       1.0000 0.42460  0.74430  0.18550  Biso   1.000  C
  C10      1.0000 0.57540  0.25570  0.81450  Biso   1.000  C
  C11      1.0000 0.42180  0.60750  0.20220  Biso   1.000  C
  C12      1.0000 0.57820  0.39250  0.79780  Biso   1.000  C
  H7       1.0000 0.47360  0.58210  0.26770  Biso   1.000  H
  H8       1.0000 0.52640  0.41790  0.73230  Biso   1.000  H
  C13      1.0000 0.33920  0.50470  0.11870  Biso   1.000  C
  C14      1.0000 0.66080  0.49530  0.88130  Biso   1.000  C
  H9       1.0000 0.34260  0.41150  0.12720  Biso   1.000  H
  H10      1.0000 0.65740  0.58850  0.87280  Biso   1.000  H
  C15      1.0000 0.25340  0.54690  0.02430  Biso   1.000  C
  C16      1.0000 0.74660  0.45310  0.97570  Biso   1.000  C
  H11      1.0000 0.19500  0.48320  0.96950  Biso   1.000  H
  H12      1.0000 0.80500  0.51680  0.03050  Biso   1.000  H
  C17      1.0000 0.25790  0.68840  0.01470  Biso   1.000  C
  C18      1.0000 0.74210  0.31160  0.98530  Biso   1.000  C
  H13      1.0000 0.19900  0.71680  0.95240  Biso   1.000  H
  H14      1.0000 0.80100  0.28320  0.04760  Biso   1.000  H
  C19      1.0000 0.85980  0.05910  0.61270  Biso   1.000  C
  C20      1.0000 0.14020  0.94090  0.38730  Biso   1.000  C
  H15      1.0000 0.85280  0.14240  0.58380  Biso   1.000  H
  H16      1.0000 0.14720  0.85760  0.41620  Biso   1.000  H
  C21      1.0000 0.78160  0.94050  0.54920  Biso   1.000  C
  C22      1.0000 0.21840  0.05950  0.45080  Biso   1.000  C
  C23      1.0000 0.80950  0.81520  0.58990  Biso   1.000  C
  C24      1.0000 0.19050  0.18480  0.41010  Biso   1.000  C
  H17      1.0000 0.77260  0.73300  0.54580  Biso   1.000  H
  H18      1.0000 0.22740  0.26700  0.45420  Biso   1.000  H
  C25      1.0000 0.89360  0.81090  0.69800  Biso   1.000  C
  C26      1.0000 0.10640  0.18910  0.30200  Biso   1.000  C
  H19      1.0000 0.90230  0.72870  0.72830  Biso   1.000  H
  H20      1.0000 0.09770  0.27130  0.27170  Biso   1.000  H
  C27      1.0000 0.96200  0.93480  0.75590  Biso   1.000  C
  C28      1.0000 0.03800  0.06520  0.24410  Biso   1.000  C
  H21      1.0000 0.02130  0.93420  0.82530  Biso   1.000  H
  H22      1.0000 0.97870  0.06580  0.17470  Biso   1.000  H
  C29      1.0000 0.25750  0.11660  0.99540  Biso   1.000  C
  C30      1.0000 0.74250  0.88340  0.00460  Biso   1.000  C
  C31      1.0000 0.01200  0.44580  0.62930  Biso   1.000  C
  C32      1.0000 0.98800  0.55420  0.37070  Biso   1.000  C
