data_image0
_cell_length_a       16.528
_cell_length_b       8.168
_cell_length_c       21.62
_cell_angle_alpha    90
_cell_angle_beta     90
_cell_angle_gamma    90

_symmetry_space_group_name_H-M    "P 1"
_symmetry_int_tables_number       1

loop_
  _symmetry_equiv_pos_as_xyz
  'x, y, z'

loop_
  _atom_site_label
  _atom_site_occupancy
  _atom_site_fract_x
  _atom_site_fract_y
  _atom_site_fract_z
  _atom_site_thermal_displace_type
  _atom_site_B_iso_or_equiv
  _atom_site_type_symbol
  Cu1      1.0000 0.08460  0.51367  0.25404  Biso   1.000  Cu
  Cu2      1.0000 0.41540  0.48633  0.75404  Biso   1.000  Cu
  Cu3      1.0000 0.91540  0.01367  0.24596  Biso   1.000  Cu
  Cu4      1.0000 0.58460  0.98633  0.74596  Biso   1.000  Cu
  Cu5      1.0000 0.91540  0.48633  0.74596  Biso   1.000  Cu
  Cu6      1.0000 0.58460  0.51367  0.24596  Biso   1.000  Cu
  Cu7      1.0000 0.08460  0.98633  0.75404  Biso   1.000  Cu
  Cu8      1.0000 0.41540  0.01367  0.25404  Biso   1.000  Cu
  N1       1.0000 0.17601  0.44300  0.19280  Biso   1.000  N
  N2       1.0000 0.32399  0.55700  0.69280  Biso   1.000  N
  N3       1.0000 0.82399  0.94300  0.30720  Biso   1.000  N
  N4       1.0000 0.67601  0.05700  0.80720  Biso   1.000  N
  N5       1.0000 0.82399  0.55700  0.80720  Biso   1.000  N
  N6       1.0000 0.67601  0.44300  0.30720  Biso   1.000  N
  N7       1.0000 0.17601  0.05700  0.69280  Biso   1.000  N
  N8       1.0000 0.32399  0.94300  0.19280  Biso   1.000  N
  N9       1.0000 0.22840  0.34250  0.09725  Biso   1.000  N
  N10      1.0000 0.27160  0.65750  0.59725  Biso   1.000  N
  N11      1.0000 0.77160  0.84250  0.40275  Biso   1.000  N
  N12      1.0000 0.72840  0.15750  0.90275  Biso   1.000  N
  N13      1.0000 0.77160  0.65750  0.90275  Biso   1.000  N
  N14      1.0000 0.72840  0.34250  0.40275  Biso   1.000  N
  N15      1.0000 0.22840  0.15750  0.59725  Biso   1.000  N
  N16      1.0000 0.27160  0.84250  0.09725  Biso   1.000  N
  N17      1.0000 0.09191  0.35520  0.11626  Biso   1.000  N
  N18      1.0000 0.40809  0.64480  0.61626  Biso   1.000  N
  N19      1.0000 0.90809  0.85520  0.38374  Biso   1.000  N
  N20      1.0000 0.59191  0.14480  0.88374  Biso   1.000  N
  N21      1.0000 0.90809  0.64480  0.88374  Biso   1.000  N
  N22      1.0000 0.59191  0.35520  0.38374  Biso   1.000  N
  N23      1.0000 0.09191  0.14480  0.61626  Biso   1.000  N
  N24      1.0000 0.40809  0.85520  0.11626  Biso   1.000  N
  H1       1.0000 0.05160  0.37880  0.13980  Biso   1.000  H
  H2       1.0000 0.44840  0.62120  0.63980  Biso   1.000  H
  H3       1.0000 0.94840  0.87880  0.36020  Biso   1.000  H
  H4       1.0000 0.55160  0.12120  0.86020  Biso   1.000  H
  H5       1.0000 0.94840  0.62120  0.86020  Biso   1.000  H
  H6       1.0000 0.55160  0.37880  0.36020  Biso   1.000  H
  H7       1.0000 0.05160  0.12120  0.63980  Biso   1.000  H
  H8       1.0000 0.44840  0.87880  0.13980  Biso   1.000  H
  H9       1.0000 0.08360  0.31520  0.08000  Biso   1.000  H
  H10      1.0000 0.41640  0.68480  0.58000  Biso   1.000  H
  H11      1.0000 0.91640  0.81520  0.42000  Biso   1.000  H
  H12      1.0000 0.58360  0.18480  0.92000  Biso   1.000  H
  H13      1.0000 0.91640  0.68480  0.92000  Biso   1.000  H
  H14      1.0000 0.58360  0.31520  0.42000  Biso   1.000  H
  H15      1.0000 0.08360  0.18480  0.58000  Biso   1.000  H
  H16      1.0000 0.41640  0.81520  0.08000  Biso   1.000  H
  N25      1.0000 0.18803  0.54480  0.30871  Biso   1.000  N
  N26      1.0000 0.31197  0.45520  0.80871  Biso   1.000  N
  N27      1.0000 0.81197  0.04480  0.19129  Biso   1.000  N
  N28      1.0000 0.68803  0.95520  0.69129  Biso   1.000  N
  N29      1.0000 0.81197  0.45520  0.69129  Biso   1.000  N
  N30      1.0000 0.68803  0.54480  0.19129  Biso   1.000  N
  N31      1.0000 0.18803  0.95520  0.80871  Biso   1.000  N
  N32      1.0000 0.31197  0.04480  0.30871  Biso   1.000  N
  N33      1.0000 0.50150  0.23730  0.00040  Biso   1.000  N
  N34      1.0000 0.99850  0.76270  0.50040  Biso   1.000  N
  N35      1.0000 0.49850  0.73730  0.49960  Biso   1.000  N
  N36      1.0000 0.00150  0.26270  0.99960  Biso   1.000  N
  N37      1.0000 0.49850  0.76270  0.99960  Biso   1.000  N
  N38      1.0000 0.00150  0.23730  0.49960  Biso   1.000  N
  N39      1.0000 0.50150  0.26270  0.50040  Biso   1.000  N
  N40      1.0000 0.99850  0.73730  0.00040  Biso   1.000  N
  N41      1.0000 0.01830  0.31570  0.26356  Biso   1.000  N
  N42      1.0000 0.48170  0.68430  0.76356  Biso   1.000  N
  N43      1.0000 0.98170  0.81570  0.23644  Biso   1.000  N
  N44      1.0000 0.51830  0.18430  0.73644  Biso   1.000  N
  N45      1.0000 0.98170  0.68430  0.73644  Biso   1.000  N
  N46      1.0000 0.51830  0.31570  0.23644  Biso   1.000  N
  N47      1.0000 0.01830  0.18430  0.76356  Biso   1.000  N
  N48      1.0000 0.48170  0.81570  0.26356  Biso   1.000  N
  C1       1.0000 0.16790  0.38080  0.13620  Biso   1.000  C
  C2       1.0000 0.33210  0.61920  0.63620  Biso   1.000  C
  C3       1.0000 0.83210  0.88080  0.36380  Biso   1.000  C
  C4       1.0000 0.66790  0.11920  0.86380  Biso   1.000  C
  C5       1.0000 0.83210  0.61920  0.86380  Biso   1.000  C
  C6       1.0000 0.66790  0.38080  0.36380  Biso   1.000  C
  C7       1.0000 0.16790  0.11920  0.63620  Biso   1.000  C
  C8       1.0000 0.33210  0.88080  0.13620  Biso   1.000  C
  C9       1.0000 0.30340  0.36670  0.11905  Biso   1.000  C
  C10      1.0000 0.19660  0.63330  0.61905  Biso   1.000  C
  C11      1.0000 0.69660  0.86670  0.38095  Biso   1.000  C
  C12      1.0000 0.80340  0.13330  0.88095  Biso   1.000  C
  C13      1.0000 0.69660  0.63330  0.88095  Biso   1.000  C
  C14      1.0000 0.80340  0.36670  0.38095  Biso   1.000  C
  C15      1.0000 0.30340  0.13330  0.61905  Biso   1.000  C
  C16      1.0000 0.19660  0.86670  0.11905  Biso   1.000  C
  C17      1.0000 0.31740  0.42450  0.17782  Biso   1.000  C
  C18      1.0000 0.18260  0.57550  0.67782  Biso   1.000  C
  C19      1.0000 0.68260  0.92450  0.32218  Biso   1.000  C
  C20      1.0000 0.81740  0.07550  0.82218  Biso   1.000  C
  C21      1.0000 0.68260  0.57550  0.82218  Biso   1.000  C
  C22      1.0000 0.81740  0.42450  0.32218  Biso   1.000  C
  C23      1.0000 0.31740  0.07550  0.67782  Biso   1.000  C
  C24      1.0000 0.18260  0.92450  0.17782  Biso   1.000  C
  H17      1.0000 0.36990  0.43850  0.19250  Biso   1.000  H
  H18      1.0000 0.13010  0.56150  0.69250  Biso   1.000  H
  H19      1.0000 0.63010  0.93850  0.30750  Biso   1.000  H
  H20      1.0000 0.86990  0.06150  0.80750  Biso   1.000  H
  H21      1.0000 0.63010  0.56150  0.80750  Biso   1.000  H
  H22      1.0000 0.86990  0.43850  0.30750  Biso   1.000  H
  H23      1.0000 0.36990  0.06150  0.69250  Biso   1.000  H
  H24      1.0000 0.13010  0.93850  0.19250  Biso   1.000  H
  C25      1.0000 0.25130  0.46120  0.21446  Biso   1.000  C
  C26      1.0000 0.24870  0.53880  0.71446  Biso   1.000  C
  C27      1.0000 0.74870  0.96120  0.28554  Biso   1.000  C
  C28      1.0000 0.75130  0.03880  0.78554  Biso   1.000  C
  C29      1.0000 0.74870  0.53880  0.78554  Biso   1.000  C
  C30      1.0000 0.75130  0.46120  0.28554  Biso   1.000  C
  C31      1.0000 0.25130  0.03880  0.71446  Biso   1.000  C
  C32      1.0000 0.24870  0.96120  0.21446  Biso   1.000  C
  C33      1.0000 0.25780  0.52160  0.27800  Biso   1.000  C
  C34      1.0000 0.24220  0.47840  0.77800  Biso   1.000  C
  C35      1.0000 0.74220  0.02160  0.22200  Biso   1.000  C
  C36      1.0000 0.75780  0.97840  0.72200  Biso   1.000  C
  C37      1.0000 0.74220  0.47840  0.72200  Biso   1.000  C
  C38      1.0000 0.75780  0.52160  0.22200  Biso   1.000  C
  C39      1.0000 0.25780  0.97840  0.77800  Biso   1.000  C
  C40      1.0000 0.24220  0.02160  0.27800  Biso   1.000  C
  C41      1.0000 0.33200  0.55380  0.30580  Biso   1.000  C
  C42      1.0000 0.16800  0.44620  0.80580  Biso   1.000  C
  C43      1.0000 0.66800  0.05380  0.19420  Biso   1.000  C
  C44      1.0000 0.83200  0.94620  0.69420  Biso   1.000  C
  C45      1.0000 0.66800  0.44620  0.69420  Biso   1.000  C
  C46      1.0000 0.83200  0.55380  0.19420  Biso   1.000  C
  C47      1.0000 0.33200  0.94620  0.80580  Biso   1.000  C
  C48      1.0000 0.16800  0.05380  0.30580  Biso   1.000  C
  H25      1.0000 0.37990  0.53670  0.28420  Biso   1.000  H
  H26      1.0000 0.12010  0.46330  0.78420  Biso   1.000  H
  H27      1.0000 0.62010  0.03670  0.21580  Biso   1.000  H
  H28      1.0000 0.87990  0.96330  0.71580  Biso   1.000  H
  H29      1.0000 0.62010  0.46330  0.71580  Biso   1.000  H
  H30      1.0000 0.87990  0.53670  0.21580  Biso   1.000  H
  H31      1.0000 0.37990  0.96330  0.78420  Biso   1.000  H
  H32      1.0000 0.12010  0.03670  0.28420  Biso   1.000  H
  C49      1.0000 0.33390  0.61110  0.36560  Biso   1.000  C
  C50      1.0000 0.16610  0.38890  0.86560  Biso   1.000  C
  C51      1.0000 0.66610  0.11110  0.13440  Biso   1.000  C
  C52      1.0000 0.83390  0.88890  0.63440  Biso   1.000  C
  C53      1.0000 0.66610  0.38890  0.63440  Biso   1.000  C
  C54      1.0000 0.83390  0.61110  0.13440  Biso   1.000  C
  C55      1.0000 0.33390  0.88890  0.86560  Biso   1.000  C
  C56      1.0000 0.16610  0.11110  0.36560  Biso   1.000  C
  H33      1.0000 0.38300  0.63500  0.38450  Biso   1.000  H
  H34      1.0000 0.11700  0.36500  0.88450  Biso   1.000  H
  H35      1.0000 0.61700  0.13500  0.11550  Biso   1.000  H
  H36      1.0000 0.88300  0.86500  0.61550  Biso   1.000  H
  H37      1.0000 0.61700  0.36500  0.61550  Biso   1.000  H
  H38      1.0000 0.88300  0.63500  0.11550  Biso   1.000  H
  H39      1.0000 0.38300  0.86500  0.88450  Biso   1.000  H
  H40      1.0000 0.11700  0.13500  0.38450  Biso   1.000  H
  C57      1.0000 0.26270  0.63250  0.39690  Biso   1.000  C
  C58      1.0000 0.23730  0.36750  0.89690  Biso   1.000  C
  C59      1.0000 0.73730  0.13250  0.10310  Biso   1.000  C
  C60      1.0000 0.76270  0.86750  0.60310  Biso   1.000  C
  C61      1.0000 0.73730  0.36750  0.60310  Biso   1.000  C
  C62      1.0000 0.76270  0.63250  0.10310  Biso   1.000  C
  C63      1.0000 0.26270  0.86750  0.89690  Biso   1.000  C
  C64      1.0000 0.23730  0.13250  0.39690  Biso   1.000  C
  H41      1.0000 0.26260  0.66850  0.43770  Biso   1.000  H
  H42      1.0000 0.23740  0.33150  0.93770  Biso   1.000  H
  H43      1.0000 0.73740  0.16850  0.06230  Biso   1.000  H
  H44      1.0000 0.76260  0.83150  0.56230  Biso   1.000  H
  H45      1.0000 0.73740  0.33150  0.56230  Biso   1.000  H
  H46      1.0000 0.76260  0.66850  0.06230  Biso   1.000  H
  H47      1.0000 0.26260  0.83150  0.93770  Biso   1.000  H
  H48      1.0000 0.23740  0.16850  0.43770  Biso   1.000  H
  C65      1.0000 0.19130  0.59970  0.36660  Biso   1.000  C
  C66      1.0000 0.30870  0.40030  0.86660  Biso   1.000  C
  C67      1.0000 0.80870  0.09970  0.13340  Biso   1.000  C
  C68      1.0000 0.69130  0.90030  0.63340  Biso   1.000  C
  C69      1.0000 0.80870  0.40030  0.63340  Biso   1.000  C
  C70      1.0000 0.69130  0.59970  0.13340  Biso   1.000  C
  C71      1.0000 0.19130  0.90030  0.86660  Biso   1.000  C
  C72      1.0000 0.30870  0.09970  0.36660  Biso   1.000  C
  H49      1.0000 0.14300  0.61670  0.38760  Biso   1.000  H
  H50      1.0000 0.35700  0.38330  0.88760  Biso   1.000  H
  H51      1.0000 0.85700  0.11670  0.11240  Biso   1.000  H
  H52      1.0000 0.64300  0.88330  0.61240  Biso   1.000  H
  H53      1.0000 0.85700  0.38330  0.61240  Biso   1.000  H
  H54      1.0000 0.64300  0.61670  0.11240  Biso   1.000  H
  H55      1.0000 0.14300  0.88330  0.88760  Biso   1.000  H
  H56      1.0000 0.35700  0.11670  0.38760  Biso   1.000  H
  C73      1.0000 0.50930  0.34420  0.04580  Biso   1.000  C
  C74      1.0000 0.99070  0.65580  0.54580  Biso   1.000  C
  C75      1.0000 0.49070  0.84420  0.45420  Biso   1.000  C
  C76      1.0000 0.00930  0.15580  0.95420  Biso   1.000  C
  C77      1.0000 0.49070  0.65580  0.95420  Biso   1.000  C
  C78      1.0000 0.00930  0.34420  0.45420  Biso   1.000  C
  C79      1.0000 0.50930  0.15580  0.54580  Biso   1.000  C
  C80      1.0000 0.99070  0.84420  0.04580  Biso   1.000  C
  H57      1.0000 0.56000  0.39100  0.05180  Biso   1.000  H
  H58      1.0000 0.94000  0.60900  0.55180  Biso   1.000  H
  H59      1.0000 0.44000  0.89100  0.44820  Biso   1.000  H
  H60      1.0000 0.06000  0.10900  0.94820  Biso   1.000  H
  H61      1.0000 0.44000  0.60900  0.94820  Biso   1.000  H
  H62      1.0000 0.06000  0.39100  0.44820  Biso   1.000  H
  H63      1.0000 0.56000  0.10900  0.55180  Biso   1.000  H
  H64      1.0000 0.94000  0.89100  0.05180  Biso   1.000  H
  C81      1.0000 0.44800  0.39130  0.08480  Biso   1.000  C
  C82      1.0000 0.05200  0.60870  0.58480  Biso   1.000  C
  C83      1.0000 0.55200  0.89130  0.41520  Biso   1.000  C
  C84      1.0000 0.94800  0.10870  0.91520  Biso   1.000  C
  C85      1.0000 0.55200  0.60870  0.91520  Biso   1.000  C
  C86      1.0000 0.94800  0.39130  0.41520  Biso   1.000  C
  C87      1.0000 0.44800  0.10870  0.58480  Biso   1.000  C
  C88      1.0000 0.05200  0.89130  0.08480  Biso   1.000  C
  H65      1.0000 0.45740  0.46790  0.11580  Biso   1.000  H
  H66      1.0000 0.04260  0.53210  0.61580  Biso   1.000  H
  H67      1.0000 0.54260  0.96790  0.38420  Biso   1.000  H
  H68      1.0000 0.95740  0.03210  0.88420  Biso   1.000  H
  H69      1.0000 0.54260  0.53210  0.88420  Biso   1.000  H
  H70      1.0000 0.95740  0.46790  0.38420  Biso   1.000  H
  H71      1.0000 0.45740  0.03210  0.61580  Biso   1.000  H
  H72      1.0000 0.04260  0.96790  0.11580  Biso   1.000  H
  C89      1.0000 0.37180  0.32290  0.07733  Biso   1.000  C
  C90      1.0000 0.12820  0.67710  0.57733  Biso   1.000  C
  C91      1.0000 0.62820  0.82290  0.42267  Biso   1.000  C
  C92      1.0000 0.87180  0.17710  0.92267  Biso   1.000  C
  C93      1.0000 0.62820  0.67710  0.92267  Biso   1.000  C
  C94      1.0000 0.87180  0.32290  0.42267  Biso   1.000  C
  C95      1.0000 0.37180  0.17710  0.57733  Biso   1.000  C
  C96      1.0000 0.12820  0.82290  0.07733  Biso   1.000  C
  C97      1.0000 0.36230  0.21210  0.03100  Biso   1.000  C
  C98      1.0000 0.13770  0.78790  0.53100  Biso   1.000  C
  C99      1.0000 0.63770  0.71210  0.46900  Biso   1.000  C
  C100     1.0000 0.86230  0.28790  0.96900  Biso   1.000  C
  C101     1.0000 0.63770  0.78790  0.96900  Biso   1.000  C
  C102     1.0000 0.86230  0.21210  0.46900  Biso   1.000  C
  C103     1.0000 0.36230  0.28790  0.53100  Biso   1.000  C
  C104     1.0000 0.13770  0.71210  0.03100  Biso   1.000  C
  H73      1.0000 0.31230  0.16360  0.02410  Biso   1.000  H
  H74      1.0000 0.18770  0.83640  0.52410  Biso   1.000  H
  H75      1.0000 0.68770  0.66360  0.47590  Biso   1.000  H
  H76      1.0000 0.81230  0.33640  0.97590  Biso   1.000  H
  H77      1.0000 0.68770  0.83640  0.97590  Biso   1.000  H
  H78      1.0000 0.81230  0.16360  0.47590  Biso   1.000  H
  H79      1.0000 0.31230  0.33640  0.52410  Biso   1.000  H
  H80      1.0000 0.18770  0.66360  0.02410  Biso   1.000  H
  C105     1.0000 0.42840  0.17220  0.99400  Biso   1.000  C
  C106     1.0000 0.07160  0.82780  0.49400  Biso   1.000  C
  C107     1.0000 0.57160  0.67220  0.50600  Biso   1.000  C
  C108     1.0000 0.92840  0.32780  0.00600  Biso   1.000  C
  C109     1.0000 0.57160  0.82780  0.00600  Biso   1.000  C
  C110     1.0000 0.92840  0.17220  0.50600  Biso   1.000  C
  C111     1.0000 0.42840  0.32780  0.49400  Biso   1.000  C
  C112     1.0000 0.07160  0.67220  0.99400  Biso   1.000  C
  H81      1.0000 0.42080  0.09510  0.96290  Biso   1.000  H
  H82      1.0000 0.07920  0.90490  0.46290  Biso   1.000  H
  H83      1.0000 0.57920  0.59510  0.53710  Biso   1.000  H
  H84      1.0000 0.92080  0.40490  0.03710  Biso   1.000  H
  H85      1.0000 0.57920  0.90490  0.03710  Biso   1.000  H
  H86      1.0000 0.92080  0.09510  0.53710  Biso   1.000  H
  H87      1.0000 0.42080  0.40490  0.46290  Biso   1.000  H
  H88      1.0000 0.07920  0.59510  0.96290  Biso   1.000  H
  C113     1.0000 0.97680  0.20420  0.25760  Biso   1.000  C
  C114     1.0000 0.52320  0.79580  0.75760  Biso   1.000  C
  C115     1.0000 0.02320  0.70420  0.24240  Biso   1.000  C
  C116     1.0000 0.47680  0.29580  0.74240  Biso   1.000  C
  C117     1.0000 0.02320  0.79580  0.74240  Biso   1.000  C
  C118     1.0000 0.47680  0.20420  0.24240  Biso   1.000  C
  C119     1.0000 0.97680  0.29580  0.75760  Biso   1.000  C
  C120     1.0000 0.52320  0.70420  0.25760  Biso   1.000  C
