data_image0
_cell_length_a       4.2655
_cell_length_b       11.9083
_cell_length_c       15.449
_cell_angle_alpha    90
_cell_angle_beta     97.75
_cell_angle_gamma    90

_symmetry_space_group_name_H-M    "P 1"
_symmetry_int_tables_number       1

loop_
  _symmetry_equiv_pos_as_xyz
  'x, y, z'

loop_
  _atom_site_label
  _atom_site_occupancy
  _atom_site_fract_x
  _atom_site_fract_y
  _atom_site_fract_z
  _atom_site_thermal_displace_type
  _atom_site_B_iso_or_equiv
  _atom_site_type_symbol
  I1       1.0000 0.21599  0.14809  0.01815  Biso   1.000  I
  I2       1.0000 0.78401  0.64809  0.48185  Biso   1.000  I
  I3       1.0000 0.78401  0.85191  0.98185  Biso   1.000  I
  I4       1.0000 0.21599  0.35191  0.51815  Biso   1.000  I
  Cu1      1.0000 0.75068  0.04376  0.08634  Biso   1.000  Cu
  Cu2      1.0000 0.24932  0.54376  0.41366  Biso   1.000  Cu
  Cu3      1.0000 0.24932  0.95624  0.91366  Biso   1.000  Cu
  Cu4      1.0000 0.75068  0.45624  0.58634  Biso   1.000  Cu
  N1       1.0000 0.74080  0.02030  0.21642  Biso   1.000  N
  N2       1.0000 0.25920  0.52030  0.28358  Biso   1.000  N
  N3       1.0000 0.25920  0.97970  0.78358  Biso   1.000  N
  N4       1.0000 0.74080  0.47970  0.71642  Biso   1.000  N
  C1       1.0000 0.57030  0.93530  0.24513  Biso   1.000  C
  C2       1.0000 0.42970  0.43530  0.25487  Biso   1.000  C
  C3       1.0000 0.42970  0.06470  0.75487  Biso   1.000  C
  C4       1.0000 0.57030  0.56470  0.74513  Biso   1.000  C
  C5       1.0000 0.89190  0.09020  0.27750  Biso   1.000  C
  C6       1.0000 0.10810  0.59020  0.22250  Biso   1.000  C
  C7       1.0000 0.10810  0.90980  0.72250  Biso   1.000  C
  C8       1.0000 0.89190  0.40980  0.77750  Biso   1.000  C
  C9       1.0000 0.55360  0.91650  0.33330  Biso   1.000  C
  C10      1.0000 0.44640  0.41650  0.16670  Biso   1.000  C
  C11      1.0000 0.44640  0.08350  0.66670  Biso   1.000  C
  C12      1.0000 0.55360  0.58350  0.83330  Biso   1.000  C
  H1       1.0000 0.43790  0.85660  0.35100  Biso   1.000  H
  H2       1.0000 0.56210  0.35660  0.14900  Biso   1.000  H
  H3       1.0000 0.56210  0.14340  0.64900  Biso   1.000  H
  H4       1.0000 0.43790  0.64340  0.85100  Biso   1.000  H
  C13      1.0000 0.71120  0.98830  0.39320  Biso   1.000  C
  C14      1.0000 0.28880  0.48830  0.10680  Biso   1.000  C
  C15      1.0000 0.28880  0.01170  0.60680  Biso   1.000  C
  C16      1.0000 0.71120  0.51170  0.89320  Biso   1.000  C
  H5       1.0000 0.70430  0.97700  0.45250  Biso   1.000  H
  H6       1.0000 0.29570  0.47700  0.04750  Biso   1.000  H
  H7       1.0000 0.29570  0.02300  0.54750  Biso   1.000  H
  H8       1.0000 0.70430  0.52300  0.95250  Biso   1.000  H
  C17      1.0000 0.87950  0.07680  0.36620  Biso   1.000  C
  C18      1.0000 0.12050  0.57680  0.13380  Biso   1.000  C
  C19      1.0000 0.12050  0.92320  0.63380  Biso   1.000  C
  C20      1.0000 0.87950  0.42320  0.86620  Biso   1.000  C
  H9       1.0000 0.98310  0.12680  0.40660  Biso   1.000  H
  H10      1.0000 0.01690  0.62680  0.09340  Biso   1.000  H
  H11      1.0000 0.01690  0.87320  0.59340  Biso   1.000  H
  H12      1.0000 0.98310  0.37320  0.90660  Biso   1.000  H
  N5       1.0000 0.05090  0.17960  0.24810  Biso   1.000  N
  N6       1.0000 0.94910  0.67960  0.25190  Biso   1.000  N
  N7       1.0000 0.94910  0.82040  0.75190  Biso   1.000  N
  N8       1.0000 0.05090  0.32040  0.74810  Biso   1.000  N
  H13      1.0000 0.05170  0.18920  0.19300  Biso   1.000  H
  H14      1.0000 0.94830  0.68920  0.30700  Biso   1.000  H
  H15      1.0000 0.94830  0.81080  0.80700  Biso   1.000  H
  H16      1.0000 0.05170  0.31080  0.69300  Biso   1.000  H
  H17      1.0000 0.14990  0.22590  0.28480  Biso   1.000  H
  H18      1.0000 0.85010  0.72590  0.21520  Biso   1.000  H
  H19      1.0000 0.85010  0.77410  0.71520  Biso   1.000  H
  H20      1.0000 0.14990  0.27410  0.78480  Biso   1.000  H
  N9       1.0000 0.42040  0.86330  0.18349  Biso   1.000  N
  N10      1.0000 0.57960  0.36330  0.31651  Biso   1.000  N
  N11      1.0000 0.57960  0.13670  0.81651  Biso   1.000  N
  N12      1.0000 0.42040  0.63670  0.68349  Biso   1.000  N
  H21      1.0000 0.43690  0.87320  0.12910  Biso   1.000  H
  H22      1.0000 0.56310  0.37320  0.37090  Biso   1.000  H
  H23      1.0000 0.56310  0.12680  0.87090  Biso   1.000  H
  H24      1.0000 0.43690  0.62680  0.62910  Biso   1.000  H
  H25      1.0000 0.31000  0.80840  0.19920  Biso   1.000  H
  H26      1.0000 0.69000  0.30840  0.30080  Biso   1.000  H
  H27      1.0000 0.69000  0.19160  0.80080  Biso   1.000  H
  H28      1.0000 0.31000  0.69160  0.69920  Biso   1.000  H
