data_image0
_cell_length_a       4.0594
_cell_length_b       10.8684
_cell_length_c       20.7336
_cell_angle_alpha    102.079
_cell_angle_beta     94.047
_cell_angle_gamma    94.299

_symmetry_space_group_name_H-M    "P 1"
_symmetry_int_tables_number       1

loop_
  _symmetry_equiv_pos_as_xyz
  'x, y, z'

loop_
  _atom_site_label
  _atom_site_occupancy
  _atom_site_fract_x
  _atom_site_fract_y
  _atom_site_fract_z
  _atom_site_thermal_displace_type
  _atom_site_B_iso_or_equiv
  _atom_site_type_symbol
  Cu1      1.0000 0.73530  0.50967  0.45015  Biso   1.000  Cu
  Cu2      1.0000 0.26470  0.49033  0.54985  Biso   1.000  Cu
  Br1      1.0000 0.32170  0.90361  0.07159  Biso   1.000  Br
  Br2      1.0000 0.67830  0.09639  0.92841  Biso   1.000  Br
  S1       1.0000 0.64150  0.39525  0.34375  Biso   1.000  S
  S2       1.0000 0.35850  0.60475  0.65625  Biso   1.000  S
  N1       1.0000 0.85820  0.60970  0.31220  Biso   1.000  N
  N2       1.0000 0.14180  0.39030  0.68780  Biso   1.000  N
  H1       1.0000 0.86063  0.63831  0.35525  Biso   1.000  H
  H2       1.0000 0.13937  0.36169  0.64475  Biso   1.000  H
  N3       1.0000 0.76690  0.43670  0.22430  Biso   1.000  N
  N4       1.0000 0.23310  0.56330  0.77570  Biso   1.000  N
  H3       1.0000 0.83292  0.49083  0.20067  Biso   1.000  H
  H4       1.0000 0.16708  0.50917  0.79933  Biso   1.000  H
  O1       1.0000 0.96700  0.66850  0.21560  Biso   1.000  O
  O2       1.0000 0.03300  0.33150  0.78440  Biso   1.000  O
  C1       1.0000 0.76340  0.47980  0.28990  Biso   1.000  C
  C2       1.0000 0.23660  0.52020  0.71010  Biso   1.000  C
  C3       1.0000 0.89010  0.87370  0.37520  Biso   1.000  C
  C4       1.0000 0.10990  0.12630  0.62480  Biso   1.000  C
  H5       1.0000 0.77513  0.81598  0.39635  Biso   1.000  H
  H6       1.0000 0.22487  0.18402  0.60365  Biso   1.000  H
  C5       1.0000 0.68500  0.08670  0.17460  Biso   1.000  C
  C6       1.0000 0.31500  0.91330  0.82540  Biso   1.000  C
  H7       1.0000 0.76263  0.01538  0.18867  Biso   1.000  H
  H8       1.0000 0.23737  0.98462  0.81133  Biso   1.000  H
  C7       1.0000 0.94800  0.69930  0.27630  Biso   1.000  C
  C8       1.0000 0.05200  0.30070  0.72370  Biso   1.000  C
  C9       1.0000 0.94400  0.00230  0.40610  Biso   1.000  C
  C10      1.0000 0.05600  0.99770  0.59390  Biso   1.000  C
  H9       1.0000 0.85825  0.03246  0.44736  Biso   1.000  H
  H10      1.0000 0.14175  0.96754  0.55264  Biso   1.000  H
  C11      1.0000 0.36200  0.17080  0.09600  Biso   1.000  C
  C12      1.0000 0.63800  0.82920  0.90400  Biso   1.000  C
  H11      1.0000 0.22028  0.15712  0.05623  Biso   1.000  H
  H12      1.0000 0.77972  0.84288  0.94377  Biso   1.000  H
  C13      1.0000 0.67000  0.30850  0.19010  Biso   1.000  C
  C14      1.0000 0.33000  0.69150  0.80990  Biso   1.000  C
  C15      1.0000 0.00760  0.83050  0.31290  Biso   1.000  C
  C16      1.0000 0.99240  0.16950  0.68710  Biso   1.000  C
  C17      1.0000 0.78600  0.20720  0.21090  Biso   1.000  C
  C18      1.0000 0.21400  0.79280  0.78910  Biso   1.000  C
  H13      1.0000 0.93385  0.21939  0.24979  Biso   1.000  H
  H14      1.0000 0.06615  0.78061  0.75021  Biso   1.000  H
  C19      1.0000 0.47400  0.07010  0.11880  Biso   1.000  C
  C20      1.0000 0.52600  0.92990  0.88120  Biso   1.000  C
  C21      1.0000 0.18300  0.91610  0.28400  Biso   1.000  C
  C22      1.0000 0.81700  0.08390  0.71600  Biso   1.000  C
  H15      1.0000 0.26464  0.88765  0.24216  Biso   1.000  H
  H16      1.0000 0.73536  0.11235  0.75784  Biso   1.000  H
  C23      1.0000 0.23900  0.04240  0.31520  Biso   1.000  C
  C24      1.0000 0.76100  0.95760  0.68480  Biso   1.000  C
  H17      1.0000 0.36006  0.09993  0.29490  Biso   1.000  H
  H18      1.0000 0.63994  0.90007  0.70510  Biso   1.000  H
  C25      1.0000 0.12000  0.08470  0.37620  Biso   1.000  C
  C26      1.0000 0.88000  0.91530  0.62380  Biso   1.000  C
  H19      1.0000 0.16085  0.17134  0.39762  Biso   1.000  H
  H20      1.0000 0.83915  0.82866  0.60238  Biso   1.000  H
  C27      1.0000 0.46000  0.29480  0.13230  Biso   1.000  C
  C28      1.0000 0.54000  0.70520  0.86770  Biso   1.000  C
  H21      1.0000 0.38469  0.36619  0.11794  Biso   1.000  H
  H22      1.0000 0.61531  0.63381  0.88206  Biso   1.000  H
  I1       1.0000 0.72245  0.32964  0.51899  Biso   1.000  I
  I2       1.0000 0.27755  0.67036  0.48101  Biso   1.000  I
  Cu3      1.0000 0.78500  0.66850  0.47470  Biso   1.000  Cu
  Cu4      1.0000 0.21500  0.33150  0.52530  Biso   1.000  Cu
  Br3      1.0000 0.33800  0.04100  0.07800  Biso   1.000  Br
  Br4      1.0000 0.66200  0.95900  0.92200  Biso   1.000  Br
  S3       1.0000 0.68000  0.55800  0.36400  Biso   1.000  S
  S4       1.0000 0.32000  0.44200  0.63600  Biso   1.000  S
  I3       1.0000 0.66600  0.17210  0.49840  Biso   1.000  I
  I4       1.0000 0.33400  0.82790  0.50160  Biso   1.000  I
  I5       1.0000 0.77600  0.48720  0.54000  Biso   1.000  I
  I6       1.0000 0.22400  0.51280  0.46000  Biso   1.000  I
  S5       1.0000 0.58300  0.24100  0.32430  Biso   1.000  S
  S6       1.0000 0.41700  0.75900  0.67570  Biso   1.000  S
  Br5      1.0000 0.25000  0.74670  0.05170  Biso   1.000  Br
  Br6      1.0000 0.75000  0.25330  0.94830  Biso   1.000  Br
  Cu5      1.0000 0.67800  0.35100  0.42940  Biso   1.000  Cu
  Cu6      1.0000 0.32200  0.64900  0.57060  Biso   1.000  Cu
  O3       1.0000 0.07200  0.61540  0.99420  Biso   1.000  O
  O4       1.0000 0.92800  0.38460  0.00580  Biso   1.000  O
  C29      1.0000 0.97000  0.51150  0.00000  Biso   1.000  C
  C30      1.0000 0.03000  0.48850  0.00000  Biso   1.000  C
  C31      1.0000 0.94000  0.47900  0.06660  Biso   1.000  C
  C32      1.0000 0.06000  0.52100  0.93340  Biso   1.000  C
  H23      1.0000 0.15674  0.49725  0.09241  Biso   1.000  H
  H24      1.0000 0.84326  0.50275  0.90759  Biso   1.000  H
  H25      1.0000 0.77889  0.53008  0.09020  Biso   1.000  H
  H26      1.0000 0.22111  0.46992  0.90980  Biso   1.000  H
  H27      1.0000 0.86614  0.38933  0.06062  Biso   1.000  H
  H28      1.0000 0.13386  0.61067  0.93938  Biso   1.000  H
  C33      1.0000 0.87200  0.40500  0.94110  Biso   1.000  C
  C34      1.0000 0.12800  0.59500  0.05890  Biso   1.000  C
  H29      1.0000 0.67096  0.42284  0.91687  Biso   1.000  H
  H30      1.0000 0.32904  0.57716  0.08313  Biso   1.000  H
  H31      1.0000 0.05206  0.39672  0.91184  Biso   1.000  H
  H32      1.0000 0.94794  0.60328  0.08816  Biso   1.000  H
  H33      1.0000 0.82854  0.32603  0.95604  Biso   1.000  H
  H34      1.0000 0.17146  0.67397  0.04396  Biso   1.000  H
