data_image0
_cell_length_a       12.688
_cell_length_b       4.1152
_cell_length_c       15.8952
_cell_angle_alpha    90
_cell_angle_beta     100.258
_cell_angle_gamma    90

_symmetry_space_group_name_H-M    "P 1"
_symmetry_int_tables_number       1

loop_
  _symmetry_equiv_pos_as_xyz
  'x, y, z'

loop_
  _atom_site_label
  _atom_site_occupancy
  _atom_site_fract_x
  _atom_site_fract_y
  _atom_site_fract_z
  _atom_site_thermal_displace_type
  _atom_site_B_iso_or_equiv
  _atom_site_type_symbol
  I1       1.0000 0.02099  0.89173  0.37962  Biso   1.000  I
  I2       1.0000 0.97901  0.39173  0.62038  Biso   1.000  I
  I3       1.0000 0.72945  0.48198  0.41104  Biso   1.000  I
  I4       1.0000 0.27055  0.98198  0.58896  Biso   1.000  I
  Cu1      1.0000 0.93650  0.38490  0.45145  Biso   1.000  Cu
  Cu2      1.0000 0.06350  0.88490  0.54855  Biso   1.000  Cu
  Cu3      1.0000 0.81130  0.99100  0.33639  Biso   1.000  Cu
  Cu4      1.0000 0.18870  0.49100  0.66361  Biso   1.000  Cu
  S1       1.0000 0.61350  0.17050  0.07118  Biso   1.000  S
  S2       1.0000 0.38650  0.67050  0.92882  Biso   1.000  S
  O1       1.0000 0.43940  0.89300  0.11400  Biso   1.000  O
  O2       1.0000 0.56060  0.39300  0.88600  Biso   1.000  O
  N1       1.0000 0.58400  0.87700  0.21900  Biso   1.000  N
  N2       1.0000 0.41600  0.37700  0.78100  Biso   1.000  N
  H1       1.0000 0.60954  0.80603  0.27090  Biso   1.000  H
  H2       1.0000 0.39046  0.30603  0.72910  Biso   1.000  H
  N3       1.0000 0.75340  0.08700  0.21050  Biso   1.000  N
  N4       1.0000 0.24660  0.58700  0.78950  Biso   1.000  N
  C1       1.0000 0.65340  0.03000  0.17590  Biso   1.000  C
  C2       1.0000 0.34660  0.53000  0.82410  Biso   1.000  C
  C3       1.0000 0.91090  0.37100  0.17400  Biso   1.000  C
  C4       1.0000 0.08910  0.87100  0.82600  Biso   1.000  C
  H3       1.0000 0.95331  0.33025  0.22853  Biso   1.000  H
  H4       1.0000 0.04669  0.83025  0.77147  Biso   1.000  H
  C5       1.0000 0.74360  0.32500  0.07550  Biso   1.000  C
  C6       1.0000 0.25640  0.82500  0.92450  Biso   1.000  C
  C7       1.0000 0.78210  0.49800  0.01250  Biso   1.000  C
  C8       1.0000 0.21790  0.99800  0.98750  Biso   1.000  C
  H5       1.0000 0.73775  0.54312  0.95900  Biso   1.000  H
  H6       1.0000 0.26225  0.04312  0.04100  Biso   1.000  H
  C9       1.0000 0.25410  0.38800  0.26740  Biso   1.000  C
  C10      1.0000 0.74590  0.88800  0.73260  Biso   1.000  C
  H7       1.0000 0.19029  0.27460  0.24396  Biso   1.000  H
  H8       1.0000 0.80971  0.77460  0.75604  Biso   1.000  H
  C11      1.0000 0.47630  0.82400  0.18740  Biso   1.000  C
  C12      1.0000 0.52370  0.32400  0.81260  Biso   1.000  C
  C13      1.0000 0.95250  0.54400  0.11160  Biso   1.000  C
  C14      1.0000 0.04750  0.04400  0.88840  Biso   1.000  C
  H9       1.0000 0.02403  0.62213  0.12379  Biso   1.000  H
  H10      1.0000 0.97597  0.12213  0.87621  Biso   1.000  H
  C15      1.0000 0.28200  0.41900  0.35510  Biso   1.000  C
  C16      1.0000 0.71800  0.91900  0.64490  Biso   1.000  C
  H11      1.0000 0.23805  0.32810  0.39168  Biso   1.000  H
  H12      1.0000 0.76195  0.82810  0.60832  Biso   1.000  H
  C17      1.0000 0.80730  0.26300  0.15450  Biso   1.000  C
  C18      1.0000 0.19270  0.76300  0.84550  Biso   1.000  C
  C19      1.0000 0.41250  0.68100  0.24790  Biso   1.000  C
  C20      1.0000 0.58750  0.18100  0.75210  Biso   1.000  C
  C21      1.0000 0.31760  0.51900  0.21210  Biso   1.000  C
  C22      1.0000 0.68240  0.01900  0.78790  Biso   1.000  C
  H13      1.0000 0.29702  0.49892  0.15188  Biso   1.000  H
  H14      1.0000 0.70298  0.99892  0.84812  Biso   1.000  H
  C23      1.0000 0.88900  0.60400  0.03050  Biso   1.000  C
  C24      1.0000 0.11100  0.10400  0.96950  Biso   1.000  C
  H15      1.0000 0.91885  0.71591  0.98805  Biso   1.000  H
  H16      1.0000 0.08115  0.21591  0.01195  Biso   1.000  H
  C25      1.0000 0.37700  0.58700  0.38950  Biso   1.000  C
  C26      1.0000 0.62300  0.08700  0.61050  Biso   1.000  C
  H17      1.0000 0.39622  0.61347  0.44963  Biso   1.000  H
  H18      1.0000 0.60378  0.11347  0.55037  Biso   1.000  H
  C27      1.0000 0.44140  0.71300  0.33740  Biso   1.000  C
  C28      1.0000 0.55860  0.21300  0.66260  Biso   1.000  C
  H19      1.0000 0.50571  0.82209  0.36150  Biso   1.000  H
  H20      1.0000 0.49429  0.32209  0.63850  Biso   1.000  H
