data_image0
_cell_length_a       8.7016
_cell_length_b       10.3863
_cell_length_c       14.6171
_cell_angle_alpha    90
_cell_angle_beta     90
_cell_angle_gamma    90

_symmetry_space_group_name_H-M    "P 1"
_symmetry_int_tables_number       1

loop_
  _symmetry_equiv_pos_as_xyz
  'x, y, z'

loop_
  _atom_site_label
  _atom_site_occupancy
  _atom_site_fract_x
  _atom_site_fract_y
  _atom_site_fract_z
  _atom_site_thermal_displace_type
  _atom_site_B_iso_or_equiv
  _atom_site_type_symbol
  Cu1      1.0000 0.89879  0.84249  0.04481  Biso   1.000  Cu
  Cu2      1.0000 0.60121  0.15751  0.54481  Biso   1.000  Cu
  Cu3      1.0000 0.39879  0.65751  0.95519  Biso   1.000  Cu
  Cu4      1.0000 0.10121  0.34249  0.45519  Biso   1.000  Cu
  S1       1.0000 0.76320  0.40434  0.99226  Biso   1.000  S
  S2       1.0000 0.73680  0.59566  0.49226  Biso   1.000  S
  S3       1.0000 0.26320  0.09566  0.00774  Biso   1.000  S
  S4       1.0000 0.23680  0.90434  0.50774  Biso   1.000  S
  S5       1.0000 0.76540  0.10892  0.99554  Biso   1.000  S
  S6       1.0000 0.73460  0.89108  0.49554  Biso   1.000  S
  S7       1.0000 0.26540  0.39108  0.00446  Biso   1.000  S
  S8       1.0000 0.23460  0.60892  0.50446  Biso   1.000  S
  N1       1.0000 0.77370  0.34190  0.81484  Biso   1.000  N
  N2       1.0000 0.72630  0.65810  0.31484  Biso   1.000  N
  N3       1.0000 0.27370  0.15810  0.18516  Biso   1.000  N
  N4       1.0000 0.22630  0.84190  0.68516  Biso   1.000  N
  N5       1.0000 0.87630  0.98940  0.13591  Biso   1.000  N
  N6       1.0000 0.62370  0.01060  0.63591  Biso   1.000  N
  N7       1.0000 0.37630  0.51060  0.86409  Biso   1.000  N
  N8       1.0000 0.12370  0.48940  0.36409  Biso   1.000  N
  N9       1.0000 0.70660  0.77000  0.00815  Biso   1.000  N
  N10      1.0000 0.79340  0.23000  0.50815  Biso   1.000  N
  N11      1.0000 0.20660  0.73000  0.99185  Biso   1.000  N
  N12      1.0000 0.29340  0.27000  0.49185  Biso   1.000  N
  C1       1.0000 0.82610  0.42260  0.87796  Biso   1.000  C
  C2       1.0000 0.67390  0.57740  0.37796  Biso   1.000  C
  C3       1.0000 0.32610  0.07740  0.12204  Biso   1.000  C
  C4       1.0000 0.17390  0.92260  0.62204  Biso   1.000  C
  C5       1.0000 0.92640  0.52290  0.85900  Biso   1.000  C
  C6       1.0000 0.57360  0.47710  0.35900  Biso   1.000  C
  C7       1.0000 0.42640  0.97710  0.14100  Biso   1.000  C
  C8       1.0000 0.07360  0.02290  0.64100  Biso   1.000  C
  H1       1.0000 0.95980  0.57860  0.90560  Biso   1.000  H
  H2       1.0000 0.54020  0.42140  0.40560  Biso   1.000  H
  H3       1.0000 0.45980  0.92140  0.09440  Biso   1.000  H
  H4       1.0000 0.04020  0.07860  0.59440  Biso   1.000  H
  C9       1.0000 0.97600  0.53910  0.77020  Biso   1.000  C
  C10      1.0000 0.52400  0.46090  0.27020  Biso   1.000  C
  C11      1.0000 0.47600  0.96090  0.22980  Biso   1.000  C
  C12      1.0000 0.02400  0.03910  0.72980  Biso   1.000  C
  H5       1.0000 0.04620  0.60460  0.75530  Biso   1.000  H
  H6       1.0000 0.45380  0.39540  0.25530  Biso   1.000  H
  H7       1.0000 0.54620  0.89540  0.24470  Biso   1.000  H
  H8       1.0000 0.95380  0.10460  0.74470  Biso   1.000  H
  C13      1.0000 0.92060  0.45720  0.70370  Biso   1.000  C
  C14      1.0000 0.57940  0.54280  0.20370  Biso   1.000  C
  C15      1.0000 0.42060  0.04280  0.29630  Biso   1.000  C
  C16      1.0000 0.07940  0.95720  0.79630  Biso   1.000  C
  H9       1.0000 0.95020  0.46690  0.64220  Biso   1.000  H
  H10      1.0000 0.54980  0.53310  0.14220  Biso   1.000  H
  H11      1.0000 0.45020  0.03310  0.35780  Biso   1.000  H
  H12      1.0000 0.04980  0.96690  0.85780  Biso   1.000  H
  C17      1.0000 0.82220  0.36220  0.72910  Biso   1.000  C
  C18      1.0000 0.67780  0.63780  0.22910  Biso   1.000  C
  C19      1.0000 0.32220  0.13780  0.27090  Biso   1.000  C
  C20      1.0000 0.17780  0.86220  0.77090  Biso   1.000  C
  H13      1.0000 0.78540  0.30670  0.68320  Biso   1.000  H
  H14      1.0000 0.71460  0.69330  0.18320  Biso   1.000  H
  H15      1.0000 0.28540  0.19330  0.31680  Biso   1.000  H
  H16      1.0000 0.21460  0.80670  0.81680  Biso   1.000  H
  C21      1.0000 0.65770  0.25660  0.98575  Biso   1.000  C
  C22      1.0000 0.84230  0.74340  0.48575  Biso   1.000  C
  C23      1.0000 0.15770  0.24340  0.01425  Biso   1.000  C
  C24      1.0000 0.34230  0.75660  0.51425  Biso   1.000  C
  H17      1.0000 0.60300  0.25510  0.92720  Biso   1.000  H
  H18      1.0000 0.89700  0.74490  0.42720  Biso   1.000  H
  H19      1.0000 0.10300  0.24490  0.07280  Biso   1.000  H
  H20      1.0000 0.39700  0.75510  0.57280  Biso   1.000  H
  H21      1.0000 0.57990  0.25740  0.03420  Biso   1.000  H
  H22      1.0000 0.92010  0.74260  0.53420  Biso   1.000  H
  H23      1.0000 0.07990  0.24260  0.96580  Biso   1.000  H
  H24      1.0000 0.42010  0.75740  0.46580  Biso   1.000  H
  C25      1.0000 0.80750  0.10100  0.11321  Biso   1.000  C
  C26      1.0000 0.69250  0.89900  0.61321  Biso   1.000  C
  C27      1.0000 0.30750  0.39900  0.88679  Biso   1.000  C
  C28      1.0000 0.19250  0.60100  0.38679  Biso   1.000  C
  C29      1.0000 0.77710  0.19520  0.17696  Biso   1.000  C
  C30      1.0000 0.72290  0.80480  0.67696  Biso   1.000  C
  C31      1.0000 0.27710  0.30480  0.82304  Biso   1.000  C
  C32      1.0000 0.22290  0.69520  0.32304  Biso   1.000  C
  H25      1.0000 0.72970  0.27270  0.15930  Biso   1.000  H
  H26      1.0000 0.77030  0.72730  0.65930  Biso   1.000  H
  H27      1.0000 0.22970  0.22730  0.84070  Biso   1.000  H
  H28      1.0000 0.27030  0.77270  0.34070  Biso   1.000  H
  C33      1.0000 0.81720  0.17460  0.26747  Biso   1.000  C
  C34      1.0000 0.68280  0.82540  0.76747  Biso   1.000  C
  C35      1.0000 0.31720  0.32540  0.73253  Biso   1.000  C
  C36      1.0000 0.18280  0.67460  0.23253  Biso   1.000  C
  H29      1.0000 0.79520  0.23710  0.31210  Biso   1.000  H
  H30      1.0000 0.70480  0.76290  0.81210  Biso   1.000  H
  H31      1.0000 0.29520  0.26290  0.68790  Biso   1.000  H
  H32      1.0000 0.20480  0.73710  0.18790  Biso   1.000  H
  C37      1.0000 0.88850  0.06300  0.29125  Biso   1.000  C
  C38      1.0000 0.61150  0.93700  0.79125  Biso   1.000  C
  C39      1.0000 0.38850  0.43700  0.70875  Biso   1.000  C
  C40      1.0000 0.11150  0.56300  0.20875  Biso   1.000  C
  H33      1.0000 0.91730  0.04740  0.35220  Biso   1.000  H
  H34      1.0000 0.58270  0.95260  0.85220  Biso   1.000  H
  H35      1.0000 0.41730  0.45260  0.64780  Biso   1.000  H
  H36      1.0000 0.08270  0.54740  0.14780  Biso   1.000  H
  C41      1.0000 0.91780  0.97290  0.22365  Biso   1.000  C
  C42      1.0000 0.58220  0.02710  0.72365  Biso   1.000  C
  C43      1.0000 0.41780  0.52710  0.77635  Biso   1.000  C
  C44      1.0000 0.08220  0.47290  0.27635  Biso   1.000  C
  H37      1.0000 0.96910  0.89660  0.23990  Biso   1.000  H
  H38      1.0000 0.53090  0.10340  0.73990  Biso   1.000  H
  H39      1.0000 0.46910  0.60340  0.76010  Biso   1.000  H
  H40      1.0000 0.03090  0.39660  0.26010  Biso   1.000  H
  C45      1.0000 0.59270  0.72260  0.98581  Biso   1.000  C
  C46      1.0000 0.90730  0.27740  0.48581  Biso   1.000  C
  C47      1.0000 0.09270  0.77740  0.01419  Biso   1.000  C
  C48      1.0000 0.40730  0.22260  0.51419  Biso   1.000  C
