data_image0
_cell_length_a       8.4826
_cell_length_b       13.9955
_cell_length_c       11.1165
_cell_angle_alpha    90
_cell_angle_beta     110.74
_cell_angle_gamma    90

_symmetry_space_group_name_H-M    "P 1"
_symmetry_int_tables_number       1

loop_
  _symmetry_equiv_pos_as_xyz
  'x, y, z'

loop_
  _atom_site_label
  _atom_site_occupancy
  _atom_site_fract_x
  _atom_site_fract_y
  _atom_site_fract_z
  _atom_site_thermal_displace_type
  _atom_site_B_iso_or_equiv
  _atom_site_type_symbol
  Cu1      1.0000 0.25465  0.25371  0.40050  Biso   1.000  Cu
  Cu2      1.0000 0.74535  0.75371  0.09950  Biso   1.000  Cu
  Cu3      1.0000 0.74535  0.74629  0.59950  Biso   1.000  Cu
  Cu4      1.0000 0.25465  0.24629  0.90050  Biso   1.000  Cu
  S1       1.0000 0.90032  0.56173  0.22882  Biso   1.000  S
  S2       1.0000 0.09968  0.06173  0.27118  Biso   1.000  S
  S3       1.0000 0.09968  0.43827  0.77118  Biso   1.000  S
  S4       1.0000 0.90032  0.93827  0.72882  Biso   1.000  S
  S5       1.0000 0.01901  0.43547  0.29177  Biso   1.000  S
  S6       1.0000 0.98099  0.93547  0.20823  Biso   1.000  S
  S7       1.0000 0.98099  0.56453  0.70823  Biso   1.000  S
  S8       1.0000 0.01901  0.06453  0.79177  Biso   1.000  S
  S9       1.0000 0.44733  0.15873  0.56766  Biso   1.000  S
  S10      1.0000 0.55267  0.65873  0.93234  Biso   1.000  S
  S11      1.0000 0.55267  0.84127  0.43234  Biso   1.000  S
  S12      1.0000 0.44733  0.34127  0.06766  Biso   1.000  S
  N1       1.0000 0.15010  0.56463  0.13060  Biso   1.000  N
  N2       1.0000 0.84990  0.06463  0.36940  Biso   1.000  N
  N3       1.0000 0.84990  0.43537  0.86940  Biso   1.000  N
  N4       1.0000 0.15010  0.93537  0.63060  Biso   1.000  N
  N5       1.0000 0.28140  0.39174  0.49206  Biso   1.000  N
  N6       1.0000 0.71860  0.89174  0.00794  Biso   1.000  N
  N7       1.0000 0.71860  0.60826  0.50794  Biso   1.000  N
  N8       1.0000 0.28140  0.10826  0.99206  Biso   1.000  N
  N9       1.0000 0.32030  0.22036  0.75550  Biso   1.000  N
  N10      1.0000 0.67970  0.72036  0.74450  Biso   1.000  N
  N11      1.0000 0.67970  0.77964  0.24450  Biso   1.000  N
  N12      1.0000 0.32030  0.27964  0.25550  Biso   1.000  N
  N13      1.0000 0.96140  0.69675  0.08977  Biso   1.000  N
  N14      1.0000 0.03860  0.19675  0.41023  Biso   1.000  N
  N15      1.0000 0.03860  0.30325  0.91023  Biso   1.000  N
  N16      1.0000 0.96140  0.80325  0.58977  Biso   1.000  N
  N17      1.0000 0.20970  0.55750  0.47350  Biso   1.000  N
  N18      1.0000 0.79030  0.05750  0.02650  Biso   1.000  N
  N19      1.0000 0.79030  0.44250  0.52650  Biso   1.000  N
  N20      1.0000 0.20970  0.94250  0.97350  Biso   1.000  N
  C1       1.0000 0.02060  0.61145  0.14080  Biso   1.000  C
  C2       1.0000 0.97940  0.11145  0.35920  Biso   1.000  C
  C3       1.0000 0.97940  0.38855  0.85920  Biso   1.000  C
  C4       1.0000 0.02060  0.88855  0.64080  Biso   1.000  C
  C5       1.0000 0.03840  0.73591  0.01500  Biso   1.000  C
  C6       1.0000 0.96160  0.23591  0.48500  Biso   1.000  C
  C7       1.0000 0.96160  0.26409  0.98500  Biso   1.000  C
  C8       1.0000 0.03840  0.76409  0.51500  Biso   1.000  C
  H1       1.0000 0.00000  0.79500  0.97510  Biso   1.000  H
  H2       1.0000 0.00000  0.29500  0.52490  Biso   1.000  H
  H3       1.0000 0.00000  0.20500  0.02490  Biso   1.000  H
  H4       1.0000 0.00000  0.70500  0.47510  Biso   1.000  H
  C9       1.0000 0.17260  0.69160  0.99500  Biso   1.000  C
  C10      1.0000 0.82740  0.19160  0.50500  Biso   1.000  C
  C11      1.0000 0.82740  0.30840  0.00500  Biso   1.000  C
  C12      1.0000 0.17260  0.80840  0.49500  Biso   1.000  C
  H5       1.0000 0.22580  0.71900  0.94220  Biso   1.000  H
  H6       1.0000 0.77420  0.21900  0.55780  Biso   1.000  H
  H7       1.0000 0.77420  0.28100  0.05780  Biso   1.000  H
  H8       1.0000 0.22580  0.78100  0.44220  Biso   1.000  H
  C13      1.0000 0.22480  0.60570  0.05590  Biso   1.000  C
  C14      1.0000 0.77520  0.10570  0.44410  Biso   1.000  C
  C15      1.0000 0.77520  0.39430  0.94410  Biso   1.000  C
  C16      1.0000 0.22480  0.89430  0.55590  Biso   1.000  C
  H9       1.0000 0.31660  0.57440  0.04470  Biso   1.000  H
  H10      1.0000 0.68340  0.07440  0.45530  Biso   1.000  H
  H11      1.0000 0.68340  0.42560  0.95530  Biso   1.000  H
  H12      1.0000 0.31660  0.92560  0.54470  Biso   1.000  H
  C17      1.0000 0.41410  0.41164  0.59870  Biso   1.000  C
  C18      1.0000 0.58590  0.91164  0.90130  Biso   1.000  C
  C19      1.0000 0.58590  0.58836  0.40130  Biso   1.000  C
  C20      1.0000 0.41410  0.08836  0.09870  Biso   1.000  C
  H13      1.0000 0.48560  0.36140  0.64160  Biso   1.000  H
  H14      1.0000 0.51440  0.86140  0.85840  Biso   1.000  H
  H15      1.0000 0.51440  0.63860  0.35840  Biso   1.000  H
  H16      1.0000 0.48560  0.13860  0.14160  Biso   1.000  H
  C21      1.0000 0.44930  0.50250  0.64740  Biso   1.000  C
  C22      1.0000 0.55070  0.00250  0.85260  Biso   1.000  C
  C23      1.0000 0.55070  0.49750  0.35260  Biso   1.000  C
  C24      1.0000 0.44930  0.99750  0.14740  Biso   1.000  C
  H17      1.0000 0.54230  0.51540  0.72230  Biso   1.000  H
  H18      1.0000 0.45770  0.01540  0.77770  Biso   1.000  H
  H19      1.0000 0.45770  0.48460  0.27770  Biso   1.000  H
  H20      1.0000 0.54230  0.98460  0.22230  Biso   1.000  H
  C25      1.0000 0.34170  0.57364  0.58130  Biso   1.000  C
  C26      1.0000 0.65830  0.07364  0.91870  Biso   1.000  C
  C27      1.0000 0.65830  0.42636  0.41870  Biso   1.000  C
  C28      1.0000 0.34170  0.92636  0.08130  Biso   1.000  C
  H21      1.0000 0.36180  0.63640  0.61310  Biso   1.000  H
  H22      1.0000 0.63820  0.13640  0.88690  Biso   1.000  H
  H23      1.0000 0.63820  0.36360  0.38690  Biso   1.000  H
  H24      1.0000 0.36180  0.86360  0.11310  Biso   1.000  H
  C29      1.0000 0.18730  0.46738  0.43510  Biso   1.000  C
  C30      1.0000 0.81270  0.96738  0.06490  Biso   1.000  C
  C31      1.0000 0.81270  0.53262  0.56490  Biso   1.000  C
  C32      1.0000 0.18730  0.03262  0.93510  Biso   1.000  C
  C33      1.0000 0.37010  0.19473  0.67750  Biso   1.000  C
  C34      1.0000 0.62990  0.69473  0.82250  Biso   1.000  C
  C35      1.0000 0.62990  0.80527  0.32250  Biso   1.000  C
  C36      1.0000 0.37010  0.30527  0.17750  Biso   1.000  C
