data_image0
_cell_length_a       16.025
_cell_length_b       16.296
_cell_length_c       9.3103
_cell_angle_alpha    90
_cell_angle_beta     105.66
_cell_angle_gamma    90

_symmetry_space_group_name_H-M    "P 1"
_symmetry_int_tables_number       1

loop_
  _symmetry_equiv_pos_as_xyz
  'x, y, z'

loop_
  _atom_site_label
  _atom_site_occupancy
  _atom_site_fract_x
  _atom_site_fract_y
  _atom_site_fract_z
  _atom_site_thermal_displace_type
  _atom_site_B_iso_or_equiv
  _atom_site_type_symbol
  Cu1      1.0000 0.20053  0.04631  0.73287  Biso   1.000  Cu
  Cu2      1.0000 0.70053  0.54631  0.73287  Biso   1.000  Cu
  Cu3      1.0000 0.79947  0.04631  0.76713  Biso   1.000  Cu
  Cu4      1.0000 0.29947  0.54631  0.76713  Biso   1.000  Cu
  Cu5      1.0000 0.79947  0.95369  0.26713  Biso   1.000  Cu
  Cu6      1.0000 0.29947  0.45369  0.26713  Biso   1.000  Cu
  Cu7      1.0000 0.20053  0.95369  0.23287  Biso   1.000  Cu
  Cu8      1.0000 0.70053  0.45369  0.23287  Biso   1.000  Cu
  S1       1.0000 0.58681  0.09504  0.45165  Biso   1.000  S
  S2       1.0000 0.08681  0.59504  0.45165  Biso   1.000  S
  S3       1.0000 0.41319  0.09504  0.04835  Biso   1.000  S
  S4       1.0000 0.91319  0.59504  0.04835  Biso   1.000  S
  S5       1.0000 0.41319  0.90496  0.54835  Biso   1.000  S
  S6       1.0000 0.91319  0.40496  0.54835  Biso   1.000  S
  S7       1.0000 0.58681  0.90496  0.95165  Biso   1.000  S
  S8       1.0000 0.08681  0.40496  0.95165  Biso   1.000  S
  N1       1.0000 0.46673  0.17752  0.54550  Biso   1.000  N
  N2       1.0000 0.96673  0.67752  0.54550  Biso   1.000  N
  N3       1.0000 0.53327  0.17752  0.95450  Biso   1.000  N
  N4       1.0000 0.03327  0.67752  0.95450  Biso   1.000  N
  N5       1.0000 0.53327  0.82248  0.45450  Biso   1.000  N
  N6       1.0000 0.03327  0.32248  0.45450  Biso   1.000  N
  N7       1.0000 0.46673  0.82248  0.04550  Biso   1.000  N
  N8       1.0000 0.96673  0.32248  0.04550  Biso   1.000  N
  N9       1.0000 0.55869  0.25077  0.42670  Biso   1.000  N
  N10      1.0000 0.05869  0.75077  0.42670  Biso   1.000  N
  N11      1.0000 0.44131  0.25077  0.07330  Biso   1.000  N
  N12      1.0000 0.94131  0.75077  0.07330  Biso   1.000  N
  N13      1.0000 0.44131  0.74923  0.57330  Biso   1.000  N
  N14      1.0000 0.94131  0.24923  0.57330  Biso   1.000  N
  N15      1.0000 0.55869  0.74923  0.92670  Biso   1.000  N
  N16      1.0000 0.05869  0.24923  0.92670  Biso   1.000  N
  N17      1.0000 0.25417  0.16006  0.71533  Biso   1.000  N
  N18      1.0000 0.75417  0.66006  0.71533  Biso   1.000  N
  N19      1.0000 0.74583  0.16006  0.78467  Biso   1.000  N
  N20      1.0000 0.24583  0.66006  0.78467  Biso   1.000  N
  N21      1.0000 0.74583  0.83994  0.28467  Biso   1.000  N
  N22      1.0000 0.24583  0.33994  0.28467  Biso   1.000  N
  N23      1.0000 0.25417  0.83994  0.21533  Biso   1.000  N
  N24      1.0000 0.75417  0.33994  0.21533  Biso   1.000  N
  N25      1.0000 0.18704  0.00114  0.53790  Biso   1.000  N
  N26      1.0000 0.68704  0.50114  0.53790  Biso   1.000  N
  N27      1.0000 0.81296  0.00114  0.96210  Biso   1.000  N
  N28      1.0000 0.31296  0.50114  0.96210  Biso   1.000  N
  N29      1.0000 0.81296  0.99886  0.46210  Biso   1.000  N
  N30      1.0000 0.31296  0.49886  0.46210  Biso   1.000  N
  N31      1.0000 0.18704  0.99886  0.03790  Biso   1.000  N
  N32      1.0000 0.68704  0.49886  0.03790  Biso   1.000  N
  C1       1.0000 0.52978  0.18272  0.47780  Biso   1.000  C
  C2       1.0000 0.02978  0.68272  0.47780  Biso   1.000  C
  C3       1.0000 0.47022  0.18272  0.02220  Biso   1.000  C
  C4       1.0000 0.97022  0.68272  0.02220  Biso   1.000  C
  C5       1.0000 0.47022  0.81728  0.52220  Biso   1.000  C
  C6       1.0000 0.97022  0.31728  0.52220  Biso   1.000  C
  C7       1.0000 0.52978  0.81728  0.97780  Biso   1.000  C
  C8       1.0000 0.02978  0.31728  0.97780  Biso   1.000  C
  C9       1.0000 0.52069  0.31950  0.45010  Biso   1.000  C
  C10      1.0000 0.02069  0.81950  0.45010  Biso   1.000  C
  C11      1.0000 0.47931  0.31950  0.04990  Biso   1.000  C
  C12      1.0000 0.97931  0.81950  0.04990  Biso   1.000  C
  C13      1.0000 0.47931  0.68050  0.54990  Biso   1.000  C
  C14      1.0000 0.97931  0.18050  0.54990  Biso   1.000  C
  C15      1.0000 0.52069  0.68050  0.95010  Biso   1.000  C
  C16      1.0000 0.02069  0.18050  0.95010  Biso   1.000  C
  H1       1.0000 0.53870  0.36840  0.41670  Biso   1.000  H
  H2       1.0000 0.03870  0.86840  0.41670  Biso   1.000  H
  H3       1.0000 0.46130  0.36840  0.08330  Biso   1.000  H
  H4       1.0000 0.96130  0.86840  0.08330  Biso   1.000  H
  H5       1.0000 0.46130  0.63160  0.58330  Biso   1.000  H
  H6       1.0000 0.96130  0.13160  0.58330  Biso   1.000  H
  H7       1.0000 0.53870  0.63160  0.91670  Biso   1.000  H
  H8       1.0000 0.03870  0.13160  0.91670  Biso   1.000  H
  C17      1.0000 0.45586  0.32250  0.52140  Biso   1.000  C
  C18      1.0000 0.95586  0.82250  0.52140  Biso   1.000  C
  C19      1.0000 0.54414  0.32250  0.97860  Biso   1.000  C
  C20      1.0000 0.04414  0.82250  0.97860  Biso   1.000  C
  C21      1.0000 0.54414  0.67750  0.47860  Biso   1.000  C
  C22      1.0000 0.04414  0.17750  0.47860  Biso   1.000  C
  C23      1.0000 0.45586  0.67750  0.02140  Biso   1.000  C
  C24      1.0000 0.95586  0.17750  0.02140  Biso   1.000  C
  H9       1.0000 0.43080  0.37190  0.53730  Biso   1.000  H
  H10      1.0000 0.93080  0.87190  0.53730  Biso   1.000  H
  H11      1.0000 0.56920  0.37190  0.96270  Biso   1.000  H
  H12      1.0000 0.06920  0.87190  0.96270  Biso   1.000  H
  H13      1.0000 0.56920  0.62810  0.46270  Biso   1.000  H
  H14      1.0000 0.06920  0.12810  0.46270  Biso   1.000  H
  H15      1.0000 0.43080  0.62810  0.03730  Biso   1.000  H
  H16      1.0000 0.93080  0.12810  0.03730  Biso   1.000  H
  C25      1.0000 0.42959  0.24839  0.56860  Biso   1.000  C
  C26      1.0000 0.92959  0.74839  0.56860  Biso   1.000  C
  C27      1.0000 0.57041  0.24839  0.93140  Biso   1.000  C
  C28      1.0000 0.07041  0.74839  0.93140  Biso   1.000  C
  C29      1.0000 0.57041  0.75161  0.43140  Biso   1.000  C
  C30      1.0000 0.07041  0.25161  0.43140  Biso   1.000  C
  C31      1.0000 0.42959  0.75161  0.06860  Biso   1.000  C
  C32      1.0000 0.92959  0.25161  0.06860  Biso   1.000  C
  C33      1.0000 0.35930  0.24308  0.64300  Biso   1.000  C
  C34      1.0000 0.85930  0.74308  0.64300  Biso   1.000  C
  C35      1.0000 0.64070  0.24308  0.85700  Biso   1.000  C
  C36      1.0000 0.14070  0.74308  0.85700  Biso   1.000  C
  C37      1.0000 0.64070  0.75692  0.35700  Biso   1.000  C
  C38      1.0000 0.14070  0.25692  0.35700  Biso   1.000  C
  C39      1.0000 0.35930  0.75692  0.14300  Biso   1.000  C
  C40      1.0000 0.85930  0.25692  0.14300  Biso   1.000  C
  C41      1.0000 0.33133  0.31071  0.70730  Biso   1.000  C
  C42      1.0000 0.83133  0.81071  0.70730  Biso   1.000  C
  C43      1.0000 0.66867  0.31071  0.79270  Biso   1.000  C
  C44      1.0000 0.16867  0.81071  0.79270  Biso   1.000  C
  C45      1.0000 0.66867  0.68929  0.29270  Biso   1.000  C
  C46      1.0000 0.16867  0.18929  0.29270  Biso   1.000  C
  C47      1.0000 0.33133  0.68929  0.20730  Biso   1.000  C
  C48      1.0000 0.83133  0.18929  0.20730  Biso   1.000  C
  H17      1.0000 0.35700  0.36170  0.70450  Biso   1.000  H
  H18      1.0000 0.85700  0.86170  0.70450  Biso   1.000  H
  H19      1.0000 0.64300  0.36170  0.79550  Biso   1.000  H
  H20      1.0000 0.14300  0.86170  0.79550  Biso   1.000  H
  H21      1.0000 0.64300  0.63830  0.29550  Biso   1.000  H
  H22      1.0000 0.14300  0.13830  0.29550  Biso   1.000  H
  H23      1.0000 0.35700  0.63830  0.20450  Biso   1.000  H
  H24      1.0000 0.85700  0.13830  0.20450  Biso   1.000  H
  C49      1.0000 0.26579  0.30235  0.77490  Biso   1.000  C
  C50      1.0000 0.76579  0.80235  0.77490  Biso   1.000  C
  C51      1.0000 0.73421  0.30235  0.72510  Biso   1.000  C
  C52      1.0000 0.23421  0.80235  0.72510  Biso   1.000  C
  C53      1.0000 0.73421  0.69765  0.22510  Biso   1.000  C
  C54      1.0000 0.23421  0.19765  0.22510  Biso   1.000  C
  C55      1.0000 0.26579  0.69765  0.27490  Biso   1.000  C
  C56      1.0000 0.76579  0.19765  0.27490  Biso   1.000  C
  H25      1.0000 0.24610  0.34750  0.81740  Biso   1.000  H
  H26      1.0000 0.74610  0.84750  0.81740  Biso   1.000  H
  H27      1.0000 0.75390  0.34750  0.68260  Biso   1.000  H
  H28      1.0000 0.25390  0.84750  0.68260  Biso   1.000  H
  H29      1.0000 0.75390  0.65250  0.18260  Biso   1.000  H
  H30      1.0000 0.25390  0.15250  0.18260  Biso   1.000  H
  H31      1.0000 0.24610  0.65250  0.31740  Biso   1.000  H
  H32      1.0000 0.74610  0.15250  0.31740  Biso   1.000  H
  C57      1.0000 0.22945  0.22636  0.77910  Biso   1.000  C
  C58      1.0000 0.72945  0.72636  0.77910  Biso   1.000  C
  C59      1.0000 0.77055  0.22636  0.72090  Biso   1.000  C
  C60      1.0000 0.27055  0.72636  0.72090  Biso   1.000  C
  C61      1.0000 0.77055  0.77364  0.22090  Biso   1.000  C
  C62      1.0000 0.27055  0.27364  0.22090  Biso   1.000  C
  C63      1.0000 0.22945  0.77364  0.27910  Biso   1.000  C
  C64      1.0000 0.72945  0.27364  0.27910  Biso   1.000  C
  H33      1.0000 0.18620  0.22060  0.82790  Biso   1.000  H
  H34      1.0000 0.68620  0.72060  0.82790  Biso   1.000  H
  H35      1.0000 0.81380  0.22060  0.67210  Biso   1.000  H
  H36      1.0000 0.31380  0.72060  0.67210  Biso   1.000  H
  H37      1.0000 0.81380  0.77940  0.17210  Biso   1.000  H
  H38      1.0000 0.31380  0.27940  0.17210  Biso   1.000  H
  H39      1.0000 0.18620  0.77940  0.32790  Biso   1.000  H
  H40      1.0000 0.68620  0.27940  0.32790  Biso   1.000  H
  C65      1.0000 0.31811  0.16915  0.65020  Biso   1.000  C
  C66      1.0000 0.81811  0.66915  0.65020  Biso   1.000  C
  C67      1.0000 0.68189  0.16915  0.84980  Biso   1.000  C
  C68      1.0000 0.18189  0.66915  0.84980  Biso   1.000  C
  C69      1.0000 0.68189  0.83085  0.34980  Biso   1.000  C
  C70      1.0000 0.18189  0.33085  0.34980  Biso   1.000  C
  C71      1.0000 0.31811  0.83085  0.15020  Biso   1.000  C
  C72      1.0000 0.81811  0.33085  0.15020  Biso   1.000  C
  H41      1.0000 0.33610  0.12330  0.60710  Biso   1.000  H
  H42      1.0000 0.83610  0.62330  0.60710  Biso   1.000  H
  H43      1.0000 0.66390  0.12330  0.89290  Biso   1.000  H
  H44      1.0000 0.16390  0.62330  0.89290  Biso   1.000  H
  H45      1.0000 0.66390  0.87670  0.39290  Biso   1.000  H
  H46      1.0000 0.16390  0.37670  0.39290  Biso   1.000  H
  H47      1.0000 0.33610  0.87670  0.10710  Biso   1.000  H
  H48      1.0000 0.83610  0.37670  0.10710  Biso   1.000  H
  C73      1.0000 0.54252  0.01639  0.54800  Biso   1.000  C
  C74      1.0000 0.04252  0.51639  0.54800  Biso   1.000  C
  C75      1.0000 0.45748  0.01639  0.95200  Biso   1.000  C
  C76      1.0000 0.95748  0.51639  0.95200  Biso   1.000  C
  C77      1.0000 0.45748  0.98361  0.45200  Biso   1.000  C
  C78      1.0000 0.95748  0.48361  0.45200  Biso   1.000  C
  C79      1.0000 0.54252  0.98361  0.04800  Biso   1.000  C
  C80      1.0000 0.04252  0.48361  0.04800  Biso   1.000  C
  H49      1.0000 0.58370  0.97170  0.57530  Biso   1.000  H
  H50      1.0000 0.08370  0.47170  0.57530  Biso   1.000  H
  H51      1.0000 0.41630  0.97170  0.92470  Biso   1.000  H
  H52      1.0000 0.91630  0.47170  0.92470  Biso   1.000  H
  H53      1.0000 0.41630  0.02830  0.42470  Biso   1.000  H
  H54      1.0000 0.91630  0.52830  0.42470  Biso   1.000  H
  H55      1.0000 0.58370  0.02830  0.07530  Biso   1.000  H
  H56      1.0000 0.08370  0.52830  0.07530  Biso   1.000  H
  H57      1.0000 0.53370  0.03920  0.63900  Biso   1.000  H
  H58      1.0000 0.03370  0.53920  0.63900  Biso   1.000  H
  H59      1.0000 0.46630  0.03920  0.86100  Biso   1.000  H
  H60      1.0000 0.96630  0.53920  0.86100  Biso   1.000  H
  H61      1.0000 0.46630  0.96080  0.36100  Biso   1.000  H
  H62      1.0000 0.96630  0.46080  0.36100  Biso   1.000  H
  H63      1.0000 0.53370  0.96080  0.13900  Biso   1.000  H
  H64      1.0000 0.03370  0.46080  0.13900  Biso   1.000  H
  C81      1.0000 0.18755  0.98173  0.42070  Biso   1.000  C
  C82      1.0000 0.68755  0.48173  0.42070  Biso   1.000  C
  C83      1.0000 0.81245  0.98173  0.07930  Biso   1.000  C
  C84      1.0000 0.31245  0.48173  0.07930  Biso   1.000  C
  C85      1.0000 0.81245  0.01827  0.57930  Biso   1.000  C
  C86      1.0000 0.31245  0.51827  0.57930  Biso   1.000  C
  C87      1.0000 0.18755  0.01827  0.92070  Biso   1.000  C
  C88      1.0000 0.68755  0.51827  0.92070  Biso   1.000  C
