data_image0
_cell_length_a       11.9875
_cell_length_b       11.9875
_cell_length_c       32.248
_cell_angle_alpha    90
_cell_angle_beta     90
_cell_angle_gamma    120

_symmetry_space_group_name_H-M    "P 1"
_symmetry_int_tables_number       1

loop_
  _symmetry_equiv_pos_as_xyz
  'x, y, z'

loop_
  _atom_site_label
  _atom_site_occupancy
  _atom_site_fract_x
  _atom_site_fract_y
  _atom_site_fract_z
  _atom_site_thermal_displace_type
  _atom_site_B_iso_or_equiv
  _atom_site_type_symbol
  W1       1.0000 0.29454  0.11494  0.21834  Biso   1.000  W
  W2       1.0000 0.88506  0.17960  0.55167  Biso   1.000  W
  W3       1.0000 0.82040  0.70546  0.88501  Biso   1.000  W
  W4       1.0000 0.11494  0.29454  0.78166  Biso   1.000  W
  W5       1.0000 0.17960  0.88506  0.44833  Biso   1.000  W
  W6       1.0000 0.70546  0.82040  0.11499  Biso   1.000  W
  Cu1      1.0000 0.45566  0.25222  0.15761  Biso   1.000  Cu
  Cu2      1.0000 0.74778  0.20344  0.49094  Biso   1.000  Cu
  Cu3      1.0000 0.79656  0.54434  0.82428  Biso   1.000  Cu
  Cu4      1.0000 0.25222  0.45566  0.84239  Biso   1.000  Cu
  Cu5      1.0000 0.20344  0.74778  0.50906  Biso   1.000  Cu
  Cu6      1.0000 0.54434  0.79656  0.17572  Biso   1.000  Cu
  Cu7      1.0000 0.10567  0.96560  0.26702  Biso   1.000  Cu
  Cu8      1.0000 0.03440  0.14007  0.60035  Biso   1.000  Cu
  Cu9      1.0000 0.85993  0.89433  0.93369  Biso   1.000  Cu
  Cu10     1.0000 0.96560  0.10567  0.73298  Biso   1.000  Cu
  Cu11     1.0000 0.14007  0.03440  0.39965  Biso   1.000  Cu
  Cu12     1.0000 0.89433  0.85993  0.06631  Biso   1.000  Cu
  S1       1.0000 0.33320  0.03360  0.16211  Biso   1.000  S
  S2       1.0000 0.96640  0.29960  0.49544  Biso   1.000  S
  S3       1.0000 0.70040  0.66680  0.82878  Biso   1.000  S
  S4       1.0000 0.03360  0.33320  0.83789  Biso   1.000  S
  S5       1.0000 0.29960  0.96640  0.50456  Biso   1.000  S
  S6       1.0000 0.66680  0.70040  0.17122  Biso   1.000  S
  S7       1.0000 0.43620  0.32260  0.22195  Biso   1.000  S
  S8       1.0000 0.67740  0.11360  0.55528  Biso   1.000  S
  S9       1.0000 0.88640  0.56380  0.88862  Biso   1.000  S
  S10      1.0000 0.32260  0.43620  0.77805  Biso   1.000  S
  S11      1.0000 0.11360  0.67740  0.44472  Biso   1.000  S
  S12      1.0000 0.56380  0.88640  0.11138  Biso   1.000  S
  S13      1.0000 0.09690  0.08400  0.21560  Biso   1.000  S
  S14      1.0000 0.91600  0.01290  0.54893  Biso   1.000  S
  S15      1.0000 0.98710  0.90310  0.88227  Biso   1.000  S
  S16      1.0000 0.08400  0.09690  0.78440  Biso   1.000  S
  S17      1.0000 0.01290  0.91600  0.45107  Biso   1.000  S
  S18      1.0000 0.90310  0.98710  0.11773  Biso   1.000  S
  S19      1.0000 0.30850  0.01280  0.27424  Biso   1.000  S
  S20      1.0000 0.98720  0.29570  0.60757  Biso   1.000  S
  S21      1.0000 0.70430  0.69150  0.94091  Biso   1.000  S
  S22      1.0000 0.01280  0.30850  0.72576  Biso   1.000  S
  S23      1.0000 0.29570  0.98720  0.39243  Biso   1.000  S
  S24      1.0000 0.69150  0.70430  0.05909  Biso   1.000  S
  O1       1.0000 0.00000  0.78470  0.16670  Biso   1.000  O
  O2       1.0000 0.21530  0.21530  0.50003  Biso   1.000  O
  O3       1.0000 0.78470  0.00000  0.83337  Biso   1.000  O
  H1       1.0000 0.05530  0.77820  0.18020  Biso   1.000  H
  H2       1.0000 0.22180  0.27710  0.51353  Biso   1.000  H
  H3       1.0000 0.72290  0.94470  0.84687  Biso   1.000  H
  H4       1.0000 0.77820  0.05530  0.81980  Biso   1.000  H
  H5       1.0000 0.27710  0.22180  0.48647  Biso   1.000  H
  H6       1.0000 0.94470  0.72290  0.15313  Biso   1.000  H
  H7       1.0000 0.98380  0.84420  0.16470  Biso   1.000  H
  H8       1.0000 0.15580  0.13960  0.49803  Biso   1.000  H
  H9       1.0000 0.86040  0.01620  0.83137  Biso   1.000  H
  H10      1.0000 0.84420  0.98380  0.83530  Biso   1.000  H
  H11      1.0000 0.13960  0.15580  0.50197  Biso   1.000  H
  H12      1.0000 0.01620  0.86040  0.16863  Biso   1.000  H
  N1       1.0000 0.54940  0.36580  0.44000  Biso   1.000  N
  N2       1.0000 0.63420  0.18360  0.77333  Biso   1.000  N
  N3       1.0000 0.81640  0.45060  0.10667  Biso   1.000  N
  N4       1.0000 0.36580  0.54940  0.56000  Biso   1.000  N
  N5       1.0000 0.18360  0.63420  0.22667  Biso   1.000  N
  N6       1.0000 0.45060  0.81640  0.89333  Biso   1.000  N
  N7       1.0000 0.68120  0.31040  0.46600  Biso   1.000  N
  N8       1.0000 0.68960  0.37080  0.79933  Biso   1.000  N
  N9       1.0000 0.62920  0.31880  0.13267  Biso   1.000  N
  N10      1.0000 0.31040  0.68120  0.53400  Biso   1.000  N
  N11      1.0000 0.37080  0.68960  0.20067  Biso   1.000  N
  N12      1.0000 0.31880  0.62920  0.86733  Biso   1.000  N
  N13      1.0000 0.56270  0.86810  0.41410  Biso   1.000  N
  N14      1.0000 0.13190  0.69460  0.74743  Biso   1.000  N
  N15      1.0000 0.30540  0.43730  0.08077  Biso   1.000  N
  N16      1.0000 0.86810  0.56270  0.58590  Biso   1.000  N
  N17      1.0000 0.69460  0.13190  0.25257  Biso   1.000  N
  N18      1.0000 0.43730  0.30540  0.91923  Biso   1.000  N
  N19      1.0000 0.68180  0.04000  0.45200  Biso   1.000  N
  N20      1.0000 0.96000  0.64180  0.78533  Biso   1.000  N
  N21      1.0000 0.35820  0.31820  0.11867  Biso   1.000  N
  N22      1.0000 0.04000  0.68180  0.54800  Biso   1.000  N
  N23      1.0000 0.64180  0.96000  0.21467  Biso   1.000  N
  N24      1.0000 0.31820  0.35820  0.88133  Biso   1.000  N
  N25      1.0000 0.76110  0.67040  0.30030  Biso   1.000  N
  N26      1.0000 0.32960  0.09070  0.63363  Biso   1.000  N
  N27      1.0000 0.90930  0.23890  0.96697  Biso   1.000  N
  N28      1.0000 0.67040  0.76110  0.69970  Biso   1.000  N
  N29      1.0000 0.09070  0.32960  0.36637  Biso   1.000  N
  N30      1.0000 0.23890  0.90930  0.03303  Biso   1.000  N
  N31      1.0000 0.95490  0.82980  0.29270  Biso   1.000  N
  N32      1.0000 0.17020  0.12510  0.62603  Biso   1.000  N
  N33      1.0000 0.87490  0.04510  0.95937  Biso   1.000  N
  N34      1.0000 0.82980  0.95490  0.70730  Biso   1.000  N
  N35      1.0000 0.12510  0.17020  0.37397  Biso   1.000  N
  N36      1.0000 0.04510  0.87490  0.04063  Biso   1.000  N
  C1       1.0000 0.45100  0.45740  0.39310  Biso   1.000  C
  C2       1.0000 0.54260  0.99360  0.72643  Biso   1.000  C
  C3       1.0000 0.00640  0.54900  0.05977  Biso   1.000  C
  C4       1.0000 0.45740  0.45100  0.60690  Biso   1.000  C
  C5       1.0000 0.99360  0.54260  0.27357  Biso   1.000  C
  C6       1.0000 0.54900  0.00640  0.94023  Biso   1.000  C
  C7       1.0000 0.43090  0.56150  0.40470  Biso   1.000  C
  C8       1.0000 0.43850  0.86940  0.73803  Biso   1.000  C
  C9       1.0000 0.13060  0.56910  0.07137  Biso   1.000  C
  C10      1.0000 0.56150  0.43090  0.59530  Biso   1.000  C
  C11      1.0000 0.86940  0.43850  0.26197  Biso   1.000  C
  C12      1.0000 0.56910  0.13060  0.92863  Biso   1.000  C
  C13      1.0000 0.46240  0.66100  0.37630  Biso   1.000  C
  C14      1.0000 0.33900  0.80140  0.70963  Biso   1.000  C
  C15      1.0000 0.19860  0.53760  0.04297  Biso   1.000  C
  C16      1.0000 0.66100  0.46240  0.62370  Biso   1.000  C
  C17      1.0000 0.80140  0.33900  0.29037  Biso   1.000  C
  C18      1.0000 0.53760  0.19860  0.95703  Biso   1.000  C
  C19      1.0000 0.52000  0.66280  0.33820  Biso   1.000  C
  C20      1.0000 0.33720  0.85720  0.67153  Biso   1.000  C
  C21      1.0000 0.14280  0.48000  0.00487  Biso   1.000  C
  C22      1.0000 0.66280  0.52000  0.66180  Biso   1.000  C
  C23      1.0000 0.85720  0.33720  0.32847  Biso   1.000  C
  C24      1.0000 0.48000  0.14280  0.99513  Biso   1.000  C
  C25      1.0000 0.54340  0.56480  0.32870  Biso   1.000  C
  C26      1.0000 0.43520  0.97860  0.66203  Biso   1.000  C
  C27      1.0000 0.02140  0.45660  0.99537  Biso   1.000  C
  C28      1.0000 0.56480  0.54340  0.67130  Biso   1.000  C
  C29      1.0000 0.97860  0.43520  0.33797  Biso   1.000  C
  C30      1.0000 0.45660  0.02140  0.00463  Biso   1.000  C
  C31      1.0000 0.50260  0.45960  0.35470  Biso   1.000  C
  C32      1.0000 0.54040  0.04300  0.68803  Biso   1.000  C
  C33      1.0000 0.95700  0.49740  0.02137  Biso   1.000  C
  C34      1.0000 0.45960  0.50260  0.64530  Biso   1.000  C
  C35      1.0000 0.04300  0.54040  0.31197  Biso   1.000  C
  C36      1.0000 0.49740  0.95700  0.97863  Biso   1.000  C
  C37      1.0000 0.42580  0.35410  0.42380  Biso   1.000  C
  C38      1.0000 0.64590  0.07170  0.75713  Biso   1.000  C
  C39      1.0000 0.92830  0.57420  0.09047  Biso   1.000  C
  C40      1.0000 0.35410  0.42580  0.57620  Biso   1.000  C
  C41      1.0000 0.07170  0.64590  0.24287  Biso   1.000  C
  C42      1.0000 0.57420  0.92830  0.90953  Biso   1.000  C
  H13      1.0000 0.37460  0.27060  0.41080  Biso   1.000  H
  H14      1.0000 0.72940  0.10400  0.74413  Biso   1.000  H
  H15      1.0000 0.89600  0.62540  0.07747  Biso   1.000  H
  H16      1.0000 0.27060  0.37460  0.58920  Biso   1.000  H
  H17      1.0000 0.10400  0.72940  0.25587  Biso   1.000  H
  H18      1.0000 0.62540  0.89600  0.92253  Biso   1.000  H
  H19      1.0000 0.37660  0.35940  0.44680  Biso   1.000  H
  H20      1.0000 0.64060  0.01720  0.78013  Biso   1.000  H
  H21      1.0000 0.98280  0.62340  0.11347  Biso   1.000  H
  H22      1.0000 0.35940  0.37660  0.55320  Biso   1.000  H
  H23      1.0000 0.01720  0.64060  0.21987  Biso   1.000  H
  H24      1.0000 0.62340  0.98280  0.88653  Biso   1.000  H
  C43      1.0000 0.37470  0.55780  0.44720  Biso   1.000  C
  C44      1.0000 0.44220  0.81690  0.78053  Biso   1.000  C
  C45      1.0000 0.18310  0.62530  0.11387  Biso   1.000  C
  C46      1.0000 0.55780  0.37470  0.55280  Biso   1.000  C
  C47      1.0000 0.81690  0.44220  0.21947  Biso   1.000  C
  C48      1.0000 0.62530  0.18310  0.88613  Biso   1.000  C
  H25      1.0000 0.38740  0.64150  0.45370  Biso   1.000  H
  H26      1.0000 0.35850  0.74590  0.78703  Biso   1.000  H
  H27      1.0000 0.25410  0.61260  0.12037  Biso   1.000  H
  H28      1.0000 0.64150  0.38740  0.54630  Biso   1.000  H
  H29      1.0000 0.74590  0.35850  0.21297  Biso   1.000  H
  H30      1.0000 0.61260  0.25410  0.87963  Biso   1.000  H
  H31      1.0000 0.41690  0.53350  0.46760  Biso   1.000  H
  H32      1.0000 0.46650  0.88340  0.80093  Biso   1.000  H
  H33      1.0000 0.11660  0.58310  0.13427  Biso   1.000  H
  H34      1.0000 0.53350  0.41690  0.53240  Biso   1.000  H
  H35      1.0000 0.88340  0.46650  0.19907  Biso   1.000  H
  H36      1.0000 0.58310  0.11660  0.86573  Biso   1.000  H
  H37      1.0000 0.28420  0.49620  0.44700  Biso   1.000  H
  H38      1.0000 0.50380  0.78800  0.78033  Biso   1.000  H
  H39      1.0000 0.21200  0.71580  0.11367  Biso   1.000  H
  H40      1.0000 0.49620  0.28420  0.55300  Biso   1.000  H
  H41      1.0000 0.78800  0.50380  0.21967  Biso   1.000  H
  H42      1.0000 0.71580  0.21200  0.88633  Biso   1.000  H
  C49      1.0000 0.44810  0.77200  0.39090  Biso   1.000  C
  C50      1.0000 0.22800  0.67610  0.72423  Biso   1.000  C
  C51      1.0000 0.32390  0.55190  0.05757  Biso   1.000  C
  C52      1.0000 0.77200  0.44810  0.60910  Biso   1.000  C
  C53      1.0000 0.67610  0.22800  0.27577  Biso   1.000  C
  C54      1.0000 0.55190  0.32390  0.94243  Biso   1.000  C
  H43      1.0000 0.43450  0.81330  0.36710  Biso   1.000  H
  H44      1.0000 0.18670  0.62120  0.70043  Biso   1.000  H
  H45      1.0000 0.37880  0.56550  0.03377  Biso   1.000  H
  H46      1.0000 0.81330  0.43450  0.63290  Biso   1.000  H
  H47      1.0000 0.62120  0.18670  0.29957  Biso   1.000  H
  H48      1.0000 0.56550  0.37880  0.96623  Biso   1.000  H
  H49      1.0000 0.37280  0.73980  0.40860  Biso   1.000  H
  H50      1.0000 0.26020  0.63300  0.74193  Biso   1.000  H
  H51      1.0000 0.36700  0.62720  0.07527  Biso   1.000  H
  H52      1.0000 0.73980  0.37280  0.59140  Biso   1.000  H
  H53      1.0000 0.63300  0.26020  0.25807  Biso   1.000  H
  H54      1.0000 0.62720  0.36700  0.92473  Biso   1.000  H
  C55      1.0000 0.56330  0.77830  0.30980  Biso   1.000  C
  C56      1.0000 0.22170  0.78500  0.64313  Biso   1.000  C
  C57      1.0000 0.21500  0.43670  0.97647  Biso   1.000  C
  C58      1.0000 0.77830  0.56330  0.69020  Biso   1.000  C
  C59      1.0000 0.78500  0.22170  0.35687  Biso   1.000  C
  C60      1.0000 0.43670  0.21500  0.02353  Biso   1.000  C
  H55      1.0000 0.64220  0.79700  0.29630  Biso   1.000  H
  H56      1.0000 0.20300  0.84520  0.62963  Biso   1.000  H
  H57      1.0000 0.15480  0.35780  0.96297  Biso   1.000  H
  H58      1.0000 0.79700  0.64220  0.70370  Biso   1.000  H
  H59      1.0000 0.84520  0.20300  0.37037  Biso   1.000  H
  H60      1.0000 0.35780  0.15480  0.03703  Biso   1.000  H
  H61      1.0000 0.57680  0.85140  0.32580  Biso   1.000  H
  H62      1.0000 0.14860  0.72540  0.65913  Biso   1.000  H
  H63      1.0000 0.27460  0.42320  0.99247  Biso   1.000  H
  H64      1.0000 0.85140  0.57680  0.67420  Biso   1.000  H
  H65      1.0000 0.72540  0.14860  0.34087  Biso   1.000  H
  H66      1.0000 0.42320  0.27460  0.00753  Biso   1.000  H
  H67      1.0000 0.49810  0.75930  0.28930  Biso   1.000  H
  H68      1.0000 0.24070  0.73880  0.62263  Biso   1.000  H
  H69      1.0000 0.26120  0.50190  0.95597  Biso   1.000  H
  H70      1.0000 0.75930  0.49810  0.71070  Biso   1.000  H
  H71      1.0000 0.73880  0.24070  0.37737  Biso   1.000  H
  H72      1.0000 0.50190  0.26120  0.04403  Biso   1.000  H
  C61      1.0000 0.62400  0.57960  0.29050  Biso   1.000  C
  C62      1.0000 0.42040  0.04440  0.62383  Biso   1.000  C
  C63      1.0000 0.95560  0.37600  0.95717  Biso   1.000  C
  C64      1.0000 0.57960  0.62400  0.70950  Biso   1.000  C
  C65      1.0000 0.04440  0.42040  0.37617  Biso   1.000  C
  C66      1.0000 0.37600  0.95560  0.04283  Biso   1.000  C
  H73      1.0000 0.61300  0.49660  0.28260  Biso   1.000  H
  H74      1.0000 0.50340  0.11640  0.61593  Biso   1.000  H
  H75      1.0000 0.88360  0.38700  0.94927  Biso   1.000  H
  H76      1.0000 0.49660  0.61300  0.71740  Biso   1.000  H
  H77      1.0000 0.11640  0.50340  0.38407  Biso   1.000  H
  H78      1.0000 0.38700  0.88360  0.05073  Biso   1.000  H
  H79      1.0000 0.59650  0.61240  0.26750  Biso   1.000  H
  H80      1.0000 0.38760  0.98410  0.60083  Biso   1.000  H
  H81      1.0000 0.01590  0.40350  0.93417  Biso   1.000  H
  H82      1.0000 0.61240  0.59650  0.73250  Biso   1.000  H
  H83      1.0000 0.98410  0.38760  0.39917  Biso   1.000  H
  H84      1.0000 0.40350  0.01590  0.06583  Biso   1.000  H
  C67      1.0000 0.52550  0.34960  0.34300  Biso   1.000  C
  C68      1.0000 0.65040  0.17590  0.67633  Biso   1.000  C
  C69      1.0000 0.82410  0.47450  0.00967  Biso   1.000  C
  C70      1.0000 0.34960  0.52550  0.65700  Biso   1.000  C
  C71      1.0000 0.17590  0.65040  0.32367  Biso   1.000  C
  C72      1.0000 0.47450  0.82410  0.99033  Biso   1.000  C
  H85      1.0000 0.49080  0.28470  0.36420  Biso   1.000  H
  H86      1.0000 0.71530  0.20610  0.69753  Biso   1.000  H
  H87      1.0000 0.79390  0.50920  0.03087  Biso   1.000  H
  H88      1.0000 0.28470  0.49080  0.63580  Biso   1.000  H
  H89      1.0000 0.20610  0.71530  0.30247  Biso   1.000  H
  H90      1.0000 0.50920  0.79390  0.96913  Biso   1.000  H
  H91      1.0000 0.61630  0.38180  0.34040  Biso   1.000  H
  H92      1.0000 0.61820  0.23450  0.67373  Biso   1.000  H
  H93      1.0000 0.76550  0.38370  0.00707  Biso   1.000  H
  H94      1.0000 0.38180  0.61630  0.65960  Biso   1.000  H
  H95      1.0000 0.23450  0.61820  0.32627  Biso   1.000  H
  H96      1.0000 0.38370  0.76550  0.99293  Biso   1.000  H
  H97      1.0000 0.48380  0.31300  0.31710  Biso   1.000  H
  H98      1.0000 0.68700  0.17080  0.65043  Biso   1.000  H
  H99      1.0000 0.82920  0.51620  0.98377  Biso   1.000  H
  H100     1.0000 0.31300  0.48380  0.68290  Biso   1.000  H
  H101     1.0000 0.17080  0.68700  0.34957  Biso   1.000  H
  H102     1.0000 0.51620  0.82920  0.01623  Biso   1.000  H
  C73      1.0000 0.56060  0.26780  0.45340  Biso   1.000  C
  C74      1.0000 0.73220  0.29280  0.78673  Biso   1.000  C
  C75      1.0000 0.70720  0.43940  0.12007  Biso   1.000  C
  C76      1.0000 0.26780  0.56060  0.54660  Biso   1.000  C
  C77      1.0000 0.29280  0.73220  0.21327  Biso   1.000  C
  C78      1.0000 0.43940  0.70720  0.87993  Biso   1.000  C
  H103     1.0000 0.49460  0.18230  0.45400  Biso   1.000  H
  H104     1.0000 0.81770  0.31230  0.78733  Biso   1.000  H
  H105     1.0000 0.68770  0.50540  0.12067  Biso   1.000  H
  H106     1.0000 0.18230  0.49460  0.54600  Biso   1.000  H
  H107     1.0000 0.31230  0.81770  0.21267  Biso   1.000  H
  H108     1.0000 0.50540  0.68770  0.87933  Biso   1.000  H
  C79      1.0000 0.74610  0.44290  0.46020  Biso   1.000  C
  C80      1.0000 0.55710  0.30320  0.79353  Biso   1.000  C
  C81      1.0000 0.69680  0.25390  0.12687  Biso   1.000  C
  C82      1.0000 0.44290  0.74610  0.53980  Biso   1.000  C
  C83      1.0000 0.30320  0.55710  0.20647  Biso   1.000  C
  C84      1.0000 0.25390  0.69680  0.87313  Biso   1.000  C
  H109     1.0000 0.83230  0.49860  0.46640  Biso   1.000  H
  H110     1.0000 0.50140  0.33370  0.79973  Biso   1.000  H
  H111     1.0000 0.66630  0.16770  0.13307  Biso   1.000  H
  H112     1.0000 0.49860  0.83230  0.53360  Biso   1.000  H
  H113     1.0000 0.33370  0.50140  0.20027  Biso   1.000  H
  H114     1.0000 0.16770  0.66630  0.86693  Biso   1.000  H
  C85      1.0000 0.66430  0.47770  0.44420  Biso   1.000  C
  C86      1.0000 0.52230  0.18660  0.77753  Biso   1.000  C
  C87      1.0000 0.81340  0.33570  0.11087  Biso   1.000  C
  C88      1.0000 0.47770  0.66430  0.55580  Biso   1.000  C
  C89      1.0000 0.18660  0.52230  0.22247  Biso   1.000  C
  C90      1.0000 0.33570  0.81340  0.88913  Biso   1.000  C
  H115     1.0000 0.68220  0.56040  0.43740  Biso   1.000  H
  H116     1.0000 0.43960  0.12180  0.77073  Biso   1.000  H
  H117     1.0000 0.87820  0.31780  0.10407  Biso   1.000  H
  H118     1.0000 0.56040  0.68220  0.56260  Biso   1.000  H
  H119     1.0000 0.12180  0.43960  0.22927  Biso   1.000  H
  H120     1.0000 0.31780  0.87820  0.89593  Biso   1.000  H
  C91      1.0000 0.57230  0.97040  0.43420  Biso   1.000  C
  C92      1.0000 0.02960  0.60190  0.76753  Biso   1.000  C
  C93      1.0000 0.39810  0.42770  0.10087  Biso   1.000  C
  C94      1.0000 0.97040  0.57230  0.56580  Biso   1.000  C
  C95      1.0000 0.60190  0.02960  0.23247  Biso   1.000  C
  C96      1.0000 0.42770  0.39810  0.89913  Biso   1.000  C
  H121     1.0000 0.50590  0.98920  0.43520  Biso   1.000  H
  H122     1.0000 0.01080  0.51670  0.76853  Biso   1.000  H
  H123     1.0000 0.48330  0.49410  0.10187  Biso   1.000  H
  H124     1.0000 0.98920  0.50590  0.56480  Biso   1.000  H
  H125     1.0000 0.51670  0.01080  0.23147  Biso   1.000  H
  H126     1.0000 0.49410  0.48330  0.89813  Biso   1.000  H
  C97      1.0000 0.75000  0.97900  0.44170  Biso   1.000  C
  C98      1.0000 0.02100  0.77100  0.77503  Biso   1.000  C
  C99      1.0000 0.22900  0.25000  0.10837  Biso   1.000  C
  C100     1.0000 0.97900  0.75000  0.55830  Biso   1.000  C
  C101     1.0000 0.77100  0.02100  0.22497  Biso   1.000  C
  C102     1.0000 0.25000  0.22900  0.89163  Biso   1.000  C
  H127     1.0000 0.83340  0.00500  0.45040  Biso   1.000  H
  H128     1.0000 0.99500  0.82840  0.78373  Biso   1.000  H
  H129     1.0000 0.17160  0.16660  0.11707  Biso   1.000  H
  H130     1.0000 0.00500  0.83340  0.54960  Biso   1.000  H
  H131     1.0000 0.82840  0.99500  0.21627  Biso   1.000  H
  H132     1.0000 0.16660  0.17160  0.88293  Biso   1.000  H
  C103     1.0000 0.68060  0.87930  0.41790  Biso   1.000  C
  C104     1.0000 0.12070  0.80130  0.75123  Biso   1.000  C
  C105     1.0000 0.19870  0.31940  0.08457  Biso   1.000  C
  C106     1.0000 0.87930  0.68060  0.58210  Biso   1.000  C
  C107     1.0000 0.80130  0.12070  0.24877  Biso   1.000  C
  C108     1.0000 0.31940  0.19870  0.91543  Biso   1.000  C
  H133     1.0000 0.70730  0.82620  0.40580  Biso   1.000  H
  H134     1.0000 0.17380  0.88110  0.73913  Biso   1.000  H
  H135     1.0000 0.11890  0.29270  0.07247  Biso   1.000  H
  H136     1.0000 0.82620  0.70730  0.59420  Biso   1.000  H
  H137     1.0000 0.88110  0.17380  0.26087  Biso   1.000  H
  H138     1.0000 0.29270  0.11890  0.92753  Biso   1.000  H
  C109     1.0000 0.84280  0.76490  0.27600  Biso   1.000  C
  C110     1.0000 0.23510  0.07790  0.60933  Biso   1.000  C
  C111     1.0000 0.92210  0.15720  0.94267  Biso   1.000  C
  C112     1.0000 0.76490  0.84280  0.72400  Biso   1.000  C
  C113     1.0000 0.07790  0.23510  0.39067  Biso   1.000  C
  C114     1.0000 0.15720  0.92210  0.05733  Biso   1.000  C
  H139     1.0000 0.82180  0.78240  0.25000  Biso   1.000  H
  H140     1.0000 0.21760  0.03940  0.58333  Biso   1.000  H
  H141     1.0000 0.96060  0.17820  0.91667  Biso   1.000  H
  H142     1.0000 0.78240  0.82180  0.75000  Biso   1.000  H
  H143     1.0000 0.03940  0.21760  0.41667  Biso   1.000  H
  H144     1.0000 0.17820  0.96060  0.08333  Biso   1.000  H
  C115     1.0000 0.94440  0.77180  0.33050  Biso   1.000  C
  C116     1.0000 0.22820  0.17260  0.66383  Biso   1.000  C
  C117     1.0000 0.82740  0.05560  0.99717  Biso   1.000  C
  C118     1.0000 0.77180  0.94440  0.66950  Biso   1.000  C
  C119     1.0000 0.17260  0.22820  0.33617  Biso   1.000  C
  C120     1.0000 0.05560  0.82740  0.00283  Biso   1.000  C
  H145     1.0000 0.01010  0.79760  0.34990  Biso   1.000  H
  H146     1.0000 0.20240  0.21250  0.68323  Biso   1.000  H
  H147     1.0000 0.78750  0.98990  0.01657  Biso   1.000  H
  H148     1.0000 0.79760  0.01010  0.65010  Biso   1.000  H
  H149     1.0000 0.21250  0.20240  0.31677  Biso   1.000  H
  H150     1.0000 0.98990  0.78750  0.98343  Biso   1.000  H
  C121     1.0000 0.82410  0.67190  0.33500  Biso   1.000  C
  C122     1.0000 0.32810  0.15220  0.66833  Biso   1.000  C
  C123     1.0000 0.84780  0.17590  0.00167  Biso   1.000  C
  C124     1.0000 0.67190  0.82410  0.66500  Biso   1.000  C
  C125     1.0000 0.15220  0.32810  0.33167  Biso   1.000  C
  C126     1.0000 0.17590  0.84780  0.99833  Biso   1.000  C
  H151     1.0000 0.79130  0.61560  0.35730  Biso   1.000  H
  H152     1.0000 0.38440  0.17570  0.69063  Biso   1.000  H
  H153     1.0000 0.82430  0.20870  0.02397  Biso   1.000  H
  H154     1.0000 0.61560  0.79130  0.64270  Biso   1.000  H
  H155     1.0000 0.17570  0.38440  0.30937  Biso   1.000  H
  H156     1.0000 0.20870  0.82430  0.97603  Biso   1.000  H
