data_image0
_cell_length_a       9.1251
_cell_length_b       8.7899
_cell_length_c       16.4571
_cell_angle_alpha    90
_cell_angle_beta     92.599
_cell_angle_gamma    90

_symmetry_space_group_name_H-M    "P 1"
_symmetry_int_tables_number       1

loop_
  _symmetry_equiv_pos_as_xyz
  'x, y, z'

loop_
  _atom_site_label
  _atom_site_occupancy
  _atom_site_fract_x
  _atom_site_fract_y
  _atom_site_fract_z
  _atom_site_thermal_displace_type
  _atom_site_B_iso_or_equiv
  _atom_site_type_symbol
  C1       1.0000 0.46930  0.97890  0.53990  Biso   1.000  C
  C2       1.0000 0.03070  0.47890  0.96010  Biso   1.000  C
  C3       1.0000 0.53070  0.02110  0.46010  Biso   1.000  C
  C4       1.0000 0.96930  0.52110  0.03990  Biso   1.000  C
  H1       1.0000 0.36640  0.95350  0.53100  Biso   1.000  H
  H2       1.0000 0.13360  0.45350  0.96900  Biso   1.000  H
  H3       1.0000 0.63360  0.04650  0.46900  Biso   1.000  H
  H4       1.0000 0.86640  0.54650  0.03100  Biso   1.000  H
  H5       1.0000 0.47530  0.06670  0.57560  Biso   1.000  H
  H6       1.0000 0.02470  0.56670  0.92440  Biso   1.000  H
  H7       1.0000 0.52470  0.93330  0.42440  Biso   1.000  H
  H8       1.0000 0.97530  0.43330  0.07560  Biso   1.000  H
  C5       1.0000 0.75140  0.87340  0.59600  Biso   1.000  C
  C6       1.0000 0.74860  0.37340  0.90400  Biso   1.000  C
  C7       1.0000 0.24860  0.12660  0.40400  Biso   1.000  C
  C8       1.0000 0.25140  0.62660  0.09600  Biso   1.000  C
  C9       1.0000 0.79700  0.97730  0.65550  Biso   1.000  C
  C10      1.0000 0.70300  0.47730  0.84450  Biso   1.000  C
  C11      1.0000 0.20300  0.02270  0.34450  Biso   1.000  C
  C12      1.0000 0.29700  0.52270  0.15550  Biso   1.000  C
  H9       1.0000 0.72820  0.02120  0.68820  Biso   1.000  H
  H10      1.0000 0.77180  0.52120  0.81180  Biso   1.000  H
  H11      1.0000 0.27180  0.97880  0.31180  Biso   1.000  H
  H12      1.0000 0.22820  0.47880  0.18820  Biso   1.000  H
  C13      1.0000 0.94330  0.01630  0.66670  Biso   1.000  C
  C14      1.0000 0.55670  0.51630  0.83330  Biso   1.000  C
  C15      1.0000 0.05670  0.98370  0.33330  Biso   1.000  C
  C16      1.0000 0.44330  0.48370  0.16670  Biso   1.000  C
  H13      1.0000 0.97300  0.08730  0.70590  Biso   1.000  H
  H14      1.0000 0.52700  0.58730  0.79410  Biso   1.000  H
  H15      1.0000 0.02700  0.91270  0.29410  Biso   1.000  H
  H16      1.0000 0.47300  0.41270  0.20590  Biso   1.000  H
  C17      1.0000 0.04240  0.94930  0.61960  Biso   1.000  C
  C18      1.0000 0.45760  0.44930  0.88040  Biso   1.000  C
  C19      1.0000 0.95760  0.05070  0.38040  Biso   1.000  C
  C20      1.0000 0.54240  0.55070  0.11960  Biso   1.000  C
  H17      1.0000 0.14100  0.97460  0.62730  Biso   1.000  H
  H18      1.0000 0.35900  0.47460  0.87270  Biso   1.000  H
  H19      1.0000 0.85900  0.02540  0.37270  Biso   1.000  H
  H20      1.0000 0.64100  0.52540  0.12730  Biso   1.000  H
  C21      1.0000 0.00100  0.84410  0.56030  Biso   1.000  C
  C22      1.0000 0.49900  0.34410  0.93970  Biso   1.000  C
  C23      1.0000 0.99900  0.15590  0.43970  Biso   1.000  C
  C24      1.0000 0.50100  0.65590  0.06030  Biso   1.000  C
  H21      1.0000 0.07190  0.79880  0.52940  Biso   1.000  H
  H22      1.0000 0.42810  0.29880  0.97060  Biso   1.000  H
  H23      1.0000 0.92810  0.20120  0.47060  Biso   1.000  H
  H24      1.0000 0.57190  0.70120  0.02940  Biso   1.000  H
  C25      1.0000 0.85370  0.80560  0.54650  Biso   1.000  C
  C26      1.0000 0.64630  0.30560  0.95350  Biso   1.000  C
  C27      1.0000 0.14630  0.19440  0.45350  Biso   1.000  C
  C28      1.0000 0.35370  0.69440  0.04650  Biso   1.000  C
  C29      1.0000 0.89520  0.65190  0.43390  Biso   1.000  C
  C30      1.0000 0.60480  0.15190  0.06610  Biso   1.000  C
  C31      1.0000 0.10480  0.34810  0.56610  Biso   1.000  C
  C32      1.0000 0.39520  0.84810  0.93390  Biso   1.000  C
  H25      1.0000 0.98760  0.69680  0.43700  Biso   1.000  H
  H26      1.0000 0.51240  0.19680  0.06300  Biso   1.000  H
  H27      1.0000 0.01240  0.30320  0.56300  Biso   1.000  H
  H28      1.0000 0.48760  0.80320  0.93700  Biso   1.000  H
  C33      1.0000 0.86980  0.53890  0.37090  Biso   1.000  C
  C34      1.0000 0.63020  0.03890  0.12910  Biso   1.000  C
  C35      1.0000 0.13020  0.46110  0.62910  Biso   1.000  C
  C36      1.0000 0.36980  0.96110  0.87090  Biso   1.000  C
  C37      1.0000 0.97590  0.49710  0.31190  Biso   1.000  C
  C38      1.0000 0.52410  0.99710  0.18810  Biso   1.000  C
  C39      1.0000 0.02410  0.50290  0.68810  Biso   1.000  C
  C40      1.0000 0.47590  0.00290  0.81190  Biso   1.000  C
  H29      1.0000 0.06870  0.53960  0.30820  Biso   1.000  H
  H30      1.0000 0.43130  0.03960  0.19180  Biso   1.000  H
  H31      1.0000 0.93130  0.46040  0.69180  Biso   1.000  H
  H32      1.0000 0.56870  0.96040  0.80820  Biso   1.000  H
  C41      1.0000 0.91790  0.38510  0.26260  Biso   1.000  C
  C42      1.0000 0.58210  0.88510  0.23740  Biso   1.000  C
  C43      1.0000 0.08210  0.61490  0.73740  Biso   1.000  C
  C44      1.0000 0.41790  0.11490  0.76260  Biso   1.000  C
  H33      1.0000 0.96910  0.34260  0.22060  Biso   1.000  H
  H34      1.0000 0.53090  0.84260  0.27940  Biso   1.000  H
  H35      1.0000 0.03090  0.65740  0.77940  Biso   1.000  H
  H36      1.0000 0.46910  0.15740  0.72060  Biso   1.000  H
  C45      1.0000 0.78170  0.34070  0.27910  Biso   1.000  C
  C46      1.0000 0.71830  0.84070  0.22090  Biso   1.000  C
  C47      1.0000 0.21830  0.65930  0.72090  Biso   1.000  C
  C48      1.0000 0.28170  0.15930  0.77910  Biso   1.000  C
  H37      1.0000 0.73050  0.26530  0.25010  Biso   1.000  H
  H38      1.0000 0.76950  0.76530  0.24990  Biso   1.000  H
  H39      1.0000 0.26950  0.73470  0.74990  Biso   1.000  H
  H40      1.0000 0.23050  0.23470  0.75010  Biso   1.000  H
  N1       1.0000 0.80460  0.69670  0.48560  Biso   1.000  N
  N2       1.0000 0.69540  0.19670  0.01440  Biso   1.000  N
  N3       1.0000 0.19540  0.30330  0.51440  Biso   1.000  N
  N4       1.0000 0.30460  0.80330  0.98560  Biso   1.000  N
  S1       1.0000 0.56298  0.81865  0.59102  Biso   1.000  S
  S2       1.0000 0.93702  0.31865  0.90898  Biso   1.000  S
  S3       1.0000 0.43702  0.18135  0.40898  Biso   1.000  S
  S4       1.0000 0.06298  0.68135  0.09102  Biso   1.000  S
  S5       1.0000 0.71373  0.43497  0.35700  Biso   1.000  S
  S6       1.0000 0.78627  0.93497  0.14300  Biso   1.000  S
  S7       1.0000 0.28627  0.56503  0.64300  Biso   1.000  S
  S8       1.0000 0.21373  0.06503  0.85700  Biso   1.000  S
  Cu1      1.0000 0.59343  0.61722  0.50018  Biso   1.000  Cu
  Cu2      1.0000 0.90657  0.11722  0.99982  Biso   1.000  Cu
  Cu3      1.0000 0.40657  0.38278  0.49982  Biso   1.000  Cu
  Cu4      1.0000 0.09343  0.88278  0.00018  Biso   1.000  Cu
  I1       1.0000 0.35828  0.62377  0.40484  Biso   1.000  I
  I2       1.0000 0.14172  0.12377  0.09516  Biso   1.000  I
  I3       1.0000 0.64172  0.37623  0.59516  Biso   1.000  I
  I4       1.0000 0.85828  0.87623  0.90484  Biso   1.000  I
