data_image0
_cell_length_a       6.504
_cell_length_b       9.059
_cell_length_c       14.156
_cell_angle_alpha    90
_cell_angle_beta     103.28
_cell_angle_gamma    90

_symmetry_space_group_name_H-M    "P 1"
_symmetry_int_tables_number       1

loop_
  _symmetry_equiv_pos_as_xyz
  'x, y, z'

loop_
  _atom_site_label
  _atom_site_occupancy
  _atom_site_fract_x
  _atom_site_fract_y
  _atom_site_fract_z
  _atom_site_thermal_displace_type
  _atom_site_B_iso_or_equiv
  _atom_site_type_symbol
  C1       1.0000 0.72780  0.80330  0.02820  Biso   1.000  C
  C2       1.0000 0.72780  0.19670  0.52820  Biso   1.000  C
  H1       1.0000 0.80470  0.85870  0.07970  Biso   1.000  H
  H2       1.0000 0.80470  0.14130  0.57970  Biso   1.000  H
  C3       1.0000 0.80200  0.78080  0.94440  Biso   1.000  C
  C4       1.0000 0.80200  0.21920  0.44440  Biso   1.000  C
  H3       1.0000 0.93150  0.82220  0.94210  Biso   1.000  H
  H4       1.0000 0.93150  0.17780  0.44210  Biso   1.000  H
  C5       1.0000 0.51690  0.64650  0.87470  Biso   1.000  C
  C6       1.0000 0.51690  0.35350  0.37470  Biso   1.000  C
  H5       1.0000 0.44280  0.59140  0.82240  Biso   1.000  H
  H6       1.0000 0.44280  0.40860  0.32240  Biso   1.000  H
  C7       1.0000 0.42810  0.66260  0.95430  Biso   1.000  C
  C8       1.0000 0.42810  0.33740  0.45430  Biso   1.000  C
  H7       1.0000 0.29750  0.62130  0.95490  Biso   1.000  H
  H8       1.0000 0.29750  0.37870  0.45490  Biso   1.000  H
  C9       1.0000 0.53960  0.74190  0.03240  Biso   1.000  C
  C10      1.0000 0.53960  0.25810  0.53240  Biso   1.000  C
  C11      1.0000 0.44060  0.76350  0.11820  Biso   1.000  C
  C12      1.0000 0.44060  0.23650  0.61820  Biso   1.000  C
  C13      1.0000 0.61620  0.75880  0.36810  Biso   1.000  C
  C14      1.0000 0.61620  0.24120  0.86810  Biso   1.000  C
  H9       1.0000 0.75440  0.72950  0.37050  Biso   1.000  H
  H10      1.0000 0.75440  0.27050  0.87050  Biso   1.000  H
  C15      1.0000 0.54490  0.77540  0.45920  Biso   1.000  C
  C16      1.0000 0.54490  0.22460  0.95920  Biso   1.000  C
  C17      1.0000 0.36510  0.85200  0.46580  Biso   1.000  C
  C18      1.0000 0.36510  0.14800  0.96580  Biso   1.000  C
  H11      1.0000 0.28220  0.89760  0.41140  Biso   1.000  H
  H12      1.0000 0.28220  0.10240  0.91140  Biso   1.000  H
  C19      1.0000 0.31030  0.85980  0.55400  Biso   1.000  C
  C20      1.0000 0.31030  0.14020  0.05400  Biso   1.000  C
  H13      1.0000 0.19040  0.91100  0.56070  Biso   1.000  H
  H14      1.0000 0.19040  0.08900  0.06070  Biso   1.000  H
  C21      1.0000 0.43750  0.78990  0.63170  Biso   1.000  C
  C22      1.0000 0.43750  0.21010  0.13170  Biso   1.000  C
  H15      1.0000 0.39690  0.79160  0.69050  Biso   1.000  H
  H16      1.0000 0.39690  0.20840  0.19050  Biso   1.000  H
  C23      1.0000 0.66270  0.71300  0.54260  Biso   1.000  C
  C24      1.0000 0.66270  0.28700  0.04260  Biso   1.000  C
  H17      1.0000 0.78470  0.66220  0.53870  Biso   1.000  H
  H18      1.0000 0.78470  0.33780  0.03870  Biso   1.000  H
  C25      1.0000 0.04590  0.63880  0.25690  Biso   1.000  C
  C26      1.0000 0.04590  0.36120  0.75690  Biso   1.000  C
  C27      1.0000 0.05650  0.01710  0.24790  Biso   1.000  C
  C28      1.0000 0.05650  0.98290  0.74790  Biso   1.000  C
  Cu1      1.0000 0.15571  0.82560  0.24331  Biso   1.000  Cu
  Cu2      1.0000 0.15571  0.17440  0.74331  Biso   1.000  Cu
  Cu3      1.0000 0.85441  0.32854  0.25500  Biso   1.000  Cu
  Cu4      1.0000 0.85441  0.67146  0.75500  Biso   1.000  Cu
  N1       1.0000 0.70110  0.70460  0.86820  Biso   1.000  N
  N2       1.0000 0.70110  0.29540  0.36820  Biso   1.000  N
  N3       1.0000 0.57370  0.76270  0.20580  Biso   1.000  N
  N4       1.0000 0.57370  0.23730  0.70580  Biso   1.000  N
  H19      1.0000 0.70700  0.74940  0.21170  Biso   1.000  H
  H20      1.0000 0.70700  0.25060  0.71170  Biso   1.000  H
  N5       1.0000 0.49130  0.78390  0.28580  Biso   1.000  N
  N6       1.0000 0.49130  0.21610  0.78580  Biso   1.000  N
  N7       1.0000 0.61360  0.72050  0.62850  Biso   1.000  N
  N8       1.0000 0.61360  0.27950  0.12850  Biso   1.000  N
  N9       1.0000 0.98180  0.52530  0.25700  Biso   1.000  N
  N10      1.0000 0.98180  0.47470  0.75700  Biso   1.000  N
  N11      1.0000 0.00250  0.13490  0.25430  Biso   1.000  N
  N12      1.0000 0.00250  0.86510  0.75430  Biso   1.000  N
  O1       1.0000 0.25260  0.78360  0.10500  Biso   1.000  O
  O2       1.0000 0.25260  0.21640  0.60500  Biso   1.000  O
