data_image0
_cell_length_a       8.7116
_cell_length_b       18.175
_cell_length_c       23.325
_cell_angle_alpha    67.505
_cell_angle_beta     85.009
_cell_angle_gamma    89.971

_symmetry_space_group_name_H-M    "P 1"
_symmetry_int_tables_number       1

loop_
  _symmetry_equiv_pos_as_xyz
  'x, y, z'

loop_
  _atom_site_label
  _atom_site_occupancy
  _atom_site_fract_x
  _atom_site_fract_y
  _atom_site_fract_z
  _atom_site_thermal_displace_type
  _atom_site_B_iso_or_equiv
  _atom_site_type_symbol
  Cu1      1.0000 0.02790  0.45869  0.28996  Biso   1.000  Cu
  Cu2      1.0000 0.97210  0.54131  0.71004  Biso   1.000  Cu
  Cu3      1.0000 0.90200  0.58370  0.19971  Biso   1.000  Cu
  Cu4      1.0000 0.09800  0.41630  0.80029  Biso   1.000  Cu
  Cu5      1.0000 0.69810  0.48462  0.28858  Biso   1.000  Cu
  Cu6      1.0000 0.30190  0.51538  0.71142  Biso   1.000  Cu
  Cu7      1.0000 0.01530  0.35447  0.22257  Biso   1.000  Cu
  Cu8      1.0000 0.98470  0.64553  0.77743  Biso   1.000  Cu
  Cu9      1.0000 0.68630  0.66076  0.28898  Biso   1.000  Cu
  Cu10     1.0000 0.31370  0.33924  0.71102  Biso   1.000  Cu
  Cu11     1.0000 0.39110  0.55896  0.20716  Biso   1.000  Cu
  Cu12     1.0000 0.60890  0.44104  0.79284  Biso   1.000  Cu
  Cu13     1.0000 0.56840  0.95857  0.28851  Biso   1.000  Cu
  Cu14     1.0000 0.43160  0.04143  0.71149  Biso   1.000  Cu
  Cu15     1.0000 0.73600  0.08435  0.19864  Biso   1.000  Cu
  Cu16     1.0000 0.26400  0.91565  0.80136  Biso   1.000  Cu
  Cu17     1.0000 0.89880  0.98466  0.29024  Biso   1.000  Cu
  Cu18     1.0000 0.10120  0.01534  0.70976  Biso   1.000  Cu
  Cu19     1.0000 0.61880  0.85719  0.22181  Biso   1.000  Cu
  Cu20     1.0000 0.38120  0.14281  0.77819  Biso   1.000  Cu
  Cu21     1.0000 0.91160  0.16024  0.28807  Biso   1.000  Cu
  Cu22     1.0000 0.08840  0.83976  0.71193  Biso   1.000  Cu
  Cu23     1.0000 0.24730  0.05882  0.20797  Biso   1.000  Cu
  Cu24     1.0000 0.75270  0.94118  0.79203  Biso   1.000  Cu
  I1       1.0000 0.87696  0.55776  0.33833  Biso   1.000  I
  I2       1.0000 0.12304  0.44224  0.66167  Biso   1.000  I
  I3       1.0000 0.12307  0.50329  0.16882  Biso   1.000  I
  I4       1.0000 0.87693  0.49671  0.83118  Biso   1.000  I
  I5       1.0000 0.82775  0.33569  0.32703  Biso   1.000  I
  I6       1.0000 0.17225  0.66431  0.67297  Biso   1.000  I
  I7       1.0000 0.65473  0.52229  0.16636  Biso   1.000  I
  I8       1.0000 0.34527  0.47771  0.83364  Biso   1.000  I
  I9       1.0000 0.69539  0.05819  0.33760  Biso   1.000  I
  I10      1.0000 0.30461  0.94181  0.66240  Biso   1.000  I
  I11      1.0000 0.75046  0.83539  0.32757  Biso   1.000  I
  I12      1.0000 0.24954  0.16461  0.67243  Biso   1.000  I
  I13      1.0000 0.53203  0.00474  0.16610  Biso   1.000  I
  I14      1.0000 0.46797  0.99526  0.83390  Biso   1.000  I
  I15      1.0000 0.99984  0.02035  0.16987  Biso   1.000  I
  I16      1.0000 0.00016  0.97965  0.83013  Biso   1.000  I
  N1       1.0000 0.23110  0.44750  0.32890  Biso   1.000  N
  N2       1.0000 0.76890  0.55250  0.67110  Biso   1.000  N
  N3       1.0000 0.35980  0.48310  0.29670  Biso   1.000  N
  N4       1.0000 0.64020  0.51690  0.70330  Biso   1.000  N
  N5       1.0000 0.48040  0.46300  0.33080  Biso   1.000  N
  N6       1.0000 0.51960  0.53700  0.66920  Biso   1.000  N
  N7       1.0000 0.86230  0.69900  0.16700  Biso   1.000  N
  N8       1.0000 0.13770  0.30100  0.83300  Biso   1.000  N
  N9       1.0000 0.76830  0.72740  0.20240  Biso   1.000  N
  N10      1.0000 0.23170  0.27260  0.79760  Biso   1.000  N
  N11      1.0000 0.73960  0.80300  0.17300  Biso   1.000  N
  N12      1.0000 0.26040  0.19700  0.82700  Biso   1.000  N
  N13      1.0000 0.79150  0.19990  0.16680  Biso   1.000  N
  N14      1.0000 0.20850  0.80010  0.83320  Biso   1.000  N
  N15      1.0000 0.86920  0.22640  0.20100  Biso   1.000  N
  N16      1.0000 0.13080  0.77360  0.79900  Biso   1.000  N
  N17      1.0000 0.91360  0.30340  0.17170  Biso   1.000  N
  N18      1.0000 0.08640  0.69660  0.82830  Biso   1.000  N
  N19      1.0000 0.35120  0.94650  0.32820  Biso   1.000  N
  N20      1.0000 0.64880  0.05350  0.67180  Biso   1.000  N
  N21      1.0000 0.23260  0.98300  0.29630  Biso   1.000  N
  N22      1.0000 0.76740  0.01700  0.70370  Biso   1.000  N
  N23      1.0000 0.09940  0.96250  0.33130  Biso   1.000  N
  N24      1.0000 0.90060  0.03750  0.66870  Biso   1.000  N
  N25      1.0000 0.48610  0.68980  0.31680  Biso   1.000  N
  N26      1.0000 0.51390  0.31020  0.68320  Biso   1.000  N
  N27      1.0000 0.43120  0.75560  0.28240  Biso   1.000  N
  N28      1.0000 0.56880  0.24440  0.71760  Biso   1.000  N
  N29      1.0000 0.28880  0.76310  0.30700  Biso   1.000  N
  N30      1.0000 0.71120  0.23690  0.69300  Biso   1.000  N
  N31      1.0000 0.33210  0.67080  0.17960  Biso   1.000  N
  N32      1.0000 0.66790  0.32920  0.82040  Biso   1.000  N
  N33      1.0000 0.22930  0.68550  0.21860  Biso   1.000  N
  N34      1.0000 0.77070  0.31450  0.78140  Biso   1.000  N
  N35      1.0000 0.19610  0.76210  0.19340  Biso   1.000  N
  N36      1.0000 0.80390  0.23790  0.80660  Biso   1.000  N
  N37      1.0000 0.09410  0.18880  0.31750  Biso   1.000  N
  N38      1.0000 0.90590  0.81120  0.68250  Biso   1.000  N
  N39      1.0000 0.16870  0.25660  0.28080  Biso   1.000  N
  N40      1.0000 0.83130  0.74340  0.71920  Biso   1.000  N
  N41      1.0000 0.29650  0.26370  0.30700  Biso   1.000  N
  N42      1.0000 0.70350  0.73630  0.69300  Biso   1.000  N
  N43      1.0000 0.31970  0.17140  0.17950  Biso   1.000  N
  N44      1.0000 0.68030  0.82860  0.82050  Biso   1.000  N
  N45      1.0000 0.40150  0.18540  0.21900  Biso   1.000  N
  N46      1.0000 0.59850  0.81460  0.78100  Biso   1.000  N
  N47      1.0000 0.44700  0.26340  0.19350  Biso   1.000  N
  N48      1.0000 0.55300  0.73660  0.80650  Biso   1.000  N
  C1       1.0000 0.42250  0.41270  0.38840  Biso   1.000  C
  C2       1.0000 0.57750  0.58730  0.61160  Biso   1.000  C
  C3       1.0000 0.26410  0.40210  0.38800  Biso   1.000  C
  C4       1.0000 0.73590  0.59790  0.61200  Biso   1.000  C
  C5       1.0000 0.17230  0.35260  0.43940  Biso   1.000  C
  C6       1.0000 0.82770  0.64740  0.56060  Biso   1.000  C
  H1       1.0000 0.06710  0.34500  0.43850  Biso   1.000  H
  H2       1.0000 0.93290  0.65500  0.56150  Biso   1.000  H
  C7       1.0000 0.24700  0.31470  0.49270  Biso   1.000  C
  C8       1.0000 0.75300  0.68530  0.50730  Biso   1.000  C
  H3       1.0000 0.18930  0.28110  0.52860  Biso   1.000  H
  H4       1.0000 0.81070  0.71890  0.47140  Biso   1.000  H
  C9       1.0000 0.40410  0.32490  0.49460  Biso   1.000  C
  C10      1.0000 0.59590  0.67510  0.50540  Biso   1.000  C
  H5       1.0000 0.44750  0.29820  0.53170  Biso   1.000  H
  H6       1.0000 0.55250  0.70180  0.46830  Biso   1.000  H
  C11      1.0000 0.49750  0.37300  0.44340  Biso   1.000  C
  C12      1.0000 0.50250  0.62700  0.55660  Biso   1.000  C
  H7       1.0000 0.60300  0.37930  0.44450  Biso   1.000  H
  H8       1.0000 0.39700  0.62070  0.55550  Biso   1.000  H
  C13      1.0000 0.81880  0.82720  0.11520  Biso   1.000  C
  C14      1.0000 0.18120  0.17280  0.88480  Biso   1.000  C
  C15      1.0000 0.89520  0.76040  0.11190  Biso   1.000  C
  C16      1.0000 0.10480  0.23960  0.88810  Biso   1.000  C
  C17      1.0000 0.98730  0.76480  0.05730  Biso   1.000  C
  C18      1.0000 0.01270  0.23520  0.94270  Biso   1.000  C
  H9       1.0000 0.03660  0.72080  0.05440  Biso   1.000  H
  H10      1.0000 0.96340  0.27920  0.94560  Biso   1.000  H
  C19      1.0000 0.99900  0.83780  0.00940  Biso   1.000  C
  C20      1.0000 0.00100  0.16220  0.99060  Biso   1.000  C
  H11      1.0000 0.06070  0.84370  0.97330  Biso   1.000  H
  H12      1.0000 0.93930  0.15630  0.02670  Biso   1.000  H
  C21      1.0000 0.92070  0.90510  0.01240  Biso   1.000  C
  C22      1.0000 0.07930  0.09490  0.98760  Biso   1.000  C
  H13      1.0000 0.93030  0.95320  0.97810  Biso   1.000  H
  H14      1.0000 0.06970  0.04680  0.02190  Biso   1.000  H
  C23      1.0000 0.83040  0.90000  0.06590  Biso   1.000  C
  C24      1.0000 0.16960  0.10000  0.93410  Biso   1.000  C
  H15      1.0000 0.77970  0.94390  0.06840  Biso   1.000  H
  H16      1.0000 0.22030  0.05610  0.93160  Biso   1.000  H
  C25      1.0000 0.86400  0.32780  0.11470  Biso   1.000  C
  C26      1.0000 0.13600  0.67220  0.88530  Biso   1.000  C
  C27      1.0000 0.78740  0.26420  0.11100  Biso   1.000  C
  C28      1.0000 0.21260  0.73580  0.88900  Biso   1.000  C
  C29      1.0000 0.72360  0.26810  0.05620  Biso   1.000  C
  C30      1.0000 0.27640  0.73190  0.94380  Biso   1.000  C
  H17      1.0000 0.67550  0.22410  0.05340  Biso   1.000  H
  H18      1.0000 0.32450  0.77590  0.94660  Biso   1.000  H
  C31      1.0000 0.73730  0.34120  0.00730  Biso   1.000  C
  C32      1.0000 0.26270  0.65880  0.99270  Biso   1.000  C
  H19      1.0000 0.69600  0.34760  0.97030  Biso   1.000  H
  H20      1.0000 0.30400  0.65240  0.02970  Biso   1.000  H
  C33      1.0000 0.81400  0.40740  0.01260  Biso   1.000  C
  C34      1.0000 0.18600  0.59260  0.98740  Biso   1.000  C
  H21      1.0000 0.82080  0.45590  0.97860  Biso   1.000  H
  H22      1.0000 0.17920  0.54410  0.02140  Biso   1.000  H
  C35      1.0000 0.87830  0.40320  0.06550  Biso   1.000  C
  C36      1.0000 0.12170  0.59680  0.93450  Biso   1.000  C
  H23      1.0000 0.92750  0.44680  0.06850  Biso   1.000  H
  H24      1.0000 0.07250  0.55320  0.93150  Biso   1.000  H
  C37      1.0000 0.12820  0.91010  0.39000  Biso   1.000  C
  C38      1.0000 0.87180  0.08990  0.61000  Biso   1.000  C
  C39      1.0000 0.29010  0.90110  0.38630  Biso   1.000  C
  C40      1.0000 0.70990  0.09890  0.61370  Biso   1.000  C
  C41      1.0000 0.35870  0.85200  0.43980  Biso   1.000  C
  C42      1.0000 0.64130  0.14800  0.56020  Biso   1.000  C
  H25      1.0000 0.46460  0.84540  0.43910  Biso   1.000  H
  H26      1.0000 0.53540  0.15460  0.56090  Biso   1.000  H
  C43      1.0000 0.26060  0.81360  0.49410  Biso   1.000  C
  C44      1.0000 0.73940  0.18640  0.50590  Biso   1.000  C
  H27      1.0000 0.30140  0.77980  0.53010  Biso   1.000  H
  H28      1.0000 0.69860  0.22020  0.46990  Biso   1.000  H
  C45      1.0000 0.10360  0.82530  0.49500  Biso   1.000  C
  C46      1.0000 0.89640  0.17470  0.50500  Biso   1.000  C
  H29      1.0000 0.04170  0.79970  0.53200  Biso   1.000  H
  H30      1.0000 0.95830  0.20030  0.46800  Biso   1.000  H
  C47      1.0000 0.03540  0.87380  0.44280  Biso   1.000  C
  C48      1.0000 0.96460  0.12620  0.55720  Biso   1.000  C
  H31      1.0000 0.92970  0.88100  0.44420  Biso   1.000  H
  H32      1.0000 0.07030  0.11900  0.55580  Biso   1.000  H
  C49      1.0000 0.25140  0.69870  0.36260  Biso   1.000  C
  C50      1.0000 0.74860  0.30130  0.63740  Biso   1.000  C
  C51      1.0000 0.38270  0.65230  0.36710  Biso   1.000  C
  C52      1.0000 0.61730  0.34770  0.63290  Biso   1.000  C
  C53      1.0000 0.38710  0.57940  0.41670  Biso   1.000  C
  C54      1.0000 0.61290  0.42060  0.58330  Biso   1.000  C
  H33      1.0000 0.47110  0.54680  0.42060  Biso   1.000  H
  H34      1.0000 0.52890  0.45320  0.57940  Biso   1.000  H
  C55      1.0000 0.25660  0.55770  0.46060  Biso   1.000  C
  C56      1.0000 0.74340  0.44230  0.53940  Biso   1.000  C
  H35      1.0000 0.25540  0.51040  0.49550  Biso   1.000  H
  H36      1.0000 0.74460  0.48960  0.50450  Biso   1.000  H
  C57      1.0000 0.13200  0.60520  0.45280  Biso   1.000  C
  C58      1.0000 0.86800  0.39480  0.54720  Biso   1.000  C
  H37      1.0000 0.04720  0.58790  0.48250  Biso   1.000  H
  H38      1.0000 0.95280  0.41210  0.51750  Biso   1.000  H
  C59      1.0000 0.12370  0.67610  0.40420  Biso   1.000  C
  C60      1.0000 0.87630  0.32390  0.59580  Biso   1.000  C
  H39      1.0000 0.03710  0.70710  0.39970  Biso   1.000  H
  H40      1.0000 0.96290  0.29290  0.60030  Biso   1.000  H
  C61      1.0000 0.28280  0.79920  0.13850  Biso   1.000  C
  C62      1.0000 0.71720  0.20080  0.86150  Biso   1.000  C
  C63      1.0000 0.37000  0.74160  0.12890  Biso   1.000  C
  C64      1.0000 0.63000  0.25840  0.87110  Biso   1.000  C
  C65      1.0000 0.47350  0.75690  0.07660  Biso   1.000  C
  C66      1.0000 0.52650  0.24310  0.92340  Biso   1.000  C
  H41      1.0000 0.53420  0.71730  0.07160  Biso   1.000  H
  H42      1.0000 0.46580  0.28270  0.92840  Biso   1.000  H
  C67      1.0000 0.48170  0.83280  0.03310  Biso   1.000  C
  C68      1.0000 0.51830  0.16720  0.96690  Biso   1.000  C
  H43      1.0000 0.54790  0.84550  0.99690  Biso   1.000  H
  H44      1.0000 0.45210  0.15450  0.00310  Biso   1.000  H
  C69      1.0000 0.39020  0.89290  0.04230  Biso   1.000  C
  C70      1.0000 0.60980  0.10710  0.95770  Biso   1.000  C
  H45      1.0000 0.39650  0.94390  0.01120  Biso   1.000  H
  H46      1.0000 0.60350  0.05610  0.98880  Biso   1.000  H
  C71      1.0000 0.29210  0.87850  0.09570  Biso   1.000  C
  C72      1.0000 0.70790  0.12150  0.90430  Biso   1.000  C
  H47      1.0000 0.23640  0.91840  0.10260  Biso   1.000  H
  H48      1.0000 0.76360  0.08160  0.89740  Biso   1.000  H
  C73      1.0000 0.18840  0.82550  0.27080  Biso   1.000  C
  C74      1.0000 0.81160  0.17450  0.72920  Biso   1.000  C
  H49      1.0000 0.25050  0.87200  0.24360  Biso   1.000  H
  H50      1.0000 0.74950  0.12800  0.75640  Biso   1.000  H
  H51      1.0000 0.11940  0.84110  0.29880  Biso   1.000  H
  H52      1.0000 0.88060  0.15890  0.70120  Biso   1.000  H
  C75      1.0000 0.09580  0.79430  0.23250  Biso   1.000  C
  C76      1.0000 0.90420  0.20570  0.76750  Biso   1.000  C
  H53      1.0000 0.02380  0.75260  0.26020  Biso   1.000  H
  H54      1.0000 0.97620  0.24740  0.73980  Biso   1.000  H
  H55      1.0000 0.03670  0.83700  0.20590  Biso   1.000  H
  H56      1.0000 0.96330  0.16300  0.79410  Biso   1.000  H
  C77      1.0000 0.31160  0.19900  0.36110  Biso   1.000  C
  C78      1.0000 0.68840  0.80100  0.63890  Biso   1.000  C
  C79      1.0000 0.17950  0.15130  0.36670  Biso   1.000  C
  C80      1.0000 0.82050  0.84870  0.63330  Biso   1.000  C
  C81      1.0000 0.15080  0.07900  0.41740  Biso   1.000  C
  C82      1.0000 0.84920  0.92100  0.58260  Biso   1.000  C
  H57      1.0000 0.06310  0.04710  0.42280  Biso   1.000  H
  H58      1.0000 0.93690  0.95290  0.57720  Biso   1.000  H
  C83      1.0000 0.26060  0.05870  0.45830  Biso   1.000  C
  C84      1.0000 0.73940  0.94130  0.54170  Biso   1.000  C
  H59      1.0000 0.24780  0.01010  0.49200  Biso   1.000  H
  H60      1.0000 0.75220  0.98990  0.50800  Biso   1.000  H
  C85      1.0000 0.39030  0.10590  0.45310  Biso   1.000  C
  C86      1.0000 0.60970  0.89410  0.54690  Biso   1.000  C
  H61      1.0000 0.45940  0.08820  0.48340  Biso   1.000  H
  H62      1.0000 0.54060  0.91180  0.51660  Biso   1.000  H
  C87      1.0000 0.42000  0.17990  0.40320  Biso   1.000  C
  C88      1.0000 0.58000  0.82010  0.59680  Biso   1.000  C
  H63      1.0000 0.50550  0.21270  0.39910  Biso   1.000  H
  H64      1.0000 0.49450  0.78730  0.60090  Biso   1.000  H
  C89      1.0000 0.39330  0.29980  0.13610  Biso   1.000  C
  C90      1.0000 0.60670  0.70020  0.86390  Biso   1.000  C
  C91      1.0000 0.31110  0.23870  0.12890  Biso   1.000  C
  C92      1.0000 0.68890  0.76130  0.87110  Biso   1.000  C
  C93      1.0000 0.24020  0.25300  0.07250  Biso   1.000  C
  C94      1.0000 0.75980  0.74700  0.92750  Biso   1.000  C
  H65      1.0000 0.18640  0.21340  0.06560  Biso   1.000  H
  H66      1.0000 0.81360  0.78660  0.93440  Biso   1.000  H
  C95      1.0000 0.25820  0.32870  0.03020  Biso   1.000  C
  C96      1.0000 0.74180  0.67130  0.96980  Biso   1.000  C
  H67      1.0000 0.21440  0.34030  0.99290  Biso   1.000  H
  H68      1.0000 0.78560  0.65970  0.00710  Biso   1.000  H
  C97      1.0000 0.33530  0.38970  0.03750  Biso   1.000  C
  C98      1.0000 0.66470  0.61030  0.96250  Biso   1.000  C
  H69      1.0000 0.34030  0.44020  0.00590  Biso   1.000  H
  H70      1.0000 0.65970  0.55980  0.99410  Biso   1.000  H
  C99      1.0000 0.40570  0.37760  0.09100  Biso   1.000  C
  C100     1.0000 0.59430  0.62240  0.90900  Biso   1.000  C
  H71      1.0000 0.45800  0.41850  0.09680  Biso   1.000  H
  H72      1.0000 0.54200  0.58150  0.90320  Biso   1.000  H
  C101     1.0000 0.41420  0.32660  0.26950  Biso   1.000  C
  C102     1.0000 0.58580  0.67340  0.73050  Biso   1.000  C
  H73      1.0000 0.46950  0.34360  0.29700  Biso   1.000  H
  H74      1.0000 0.53050  0.65640  0.70300  Biso   1.000  H
  H75      1.0000 0.36410  0.37240  0.24170  Biso   1.000  H
  H76      1.0000 0.63590  0.62760  0.75830  Biso   1.000  H
  C103     1.0000 0.52700  0.29490  0.23180  Biso   1.000  C
  C104     1.0000 0.47300  0.70510  0.76820  Biso   1.000  C
  H77      1.0000 0.59900  0.33740  0.20530  Biso   1.000  H
  H78      1.0000 0.40100  0.66260  0.79470  Biso   1.000  H
  H79      1.0000 0.58540  0.25310  0.25980  Biso   1.000  H
  H80      1.0000 0.41460  0.74690  0.74020  Biso   1.000  H
