data_image0
_cell_length_a       6.8143
_cell_length_b       6.2582
_cell_length_c       13.622
_cell_angle_alpha    90
_cell_angle_beta     98.907
_cell_angle_gamma    90

_symmetry_space_group_name_H-M    "P 1"
_symmetry_int_tables_number       1

loop_
  _symmetry_equiv_pos_as_xyz
  'x, y, z'

loop_
  _atom_site_label
  _atom_site_occupancy
  _atom_site_fract_x
  _atom_site_fract_y
  _atom_site_fract_z
  _atom_site_thermal_displace_type
  _atom_site_B_iso_or_equiv
  _atom_site_type_symbol
  Cu1      1.0000 0.08768  0.10379  0.84074  Biso   1.000  Cu
  Cu2      1.0000 0.91232  0.60379  0.65926  Biso   1.000  Cu
  Cu3      1.0000 0.91232  0.89621  0.15926  Biso   1.000  Cu
  Cu4      1.0000 0.08768  0.39621  0.34074  Biso   1.000  Cu
  Cu5      1.0000 0.16369  0.34635  0.05213  Biso   1.000  Cu
  Cu6      1.0000 0.83631  0.84635  0.44787  Biso   1.000  Cu
  Cu7      1.0000 0.83631  0.65365  0.94787  Biso   1.000  Cu
  Cu8      1.0000 0.16369  0.15365  0.55213  Biso   1.000  Cu
  Cl1      1.0000 0.86151  0.28959  0.93276  Biso   1.000  Cl
  Cl2      1.0000 0.13849  0.78959  0.56724  Biso   1.000  Cl
  Cl3      1.0000 0.13849  0.71041  0.06724  Biso   1.000  Cl
  Cl4      1.0000 0.86151  0.21041  0.43276  Biso   1.000  Cl
  Cl5      1.0000 0.87690  0.81158  0.79401  Biso   1.000  Cl
  Cl6      1.0000 0.12310  0.31158  0.70599  Biso   1.000  Cl
  Cl7      1.0000 0.12310  0.18842  0.20599  Biso   1.000  Cl
  Cl8      1.0000 0.87690  0.68842  0.29401  Biso   1.000  Cl
  C1       1.0000 0.45500  0.87490  0.92290  Biso   1.000  C
  C2       1.0000 0.54500  0.37490  0.57710  Biso   1.000  C
  C3       1.0000 0.54500  0.12510  0.07710  Biso   1.000  C
  C4       1.0000 0.45500  0.62510  0.42290  Biso   1.000  C
  C5       1.0000 0.39660  0.72580  0.83870  Biso   1.000  C
  C6       1.0000 0.60340  0.22580  0.66130  Biso   1.000  C
  C7       1.0000 0.60340  0.27420  0.16130  Biso   1.000  C
  C8       1.0000 0.39660  0.77420  0.33870  Biso   1.000  C
  H1       1.0000 0.49050  0.61070  0.84240  Biso   1.000  H
  H2       1.0000 0.50950  0.11070  0.65760  Biso   1.000  H
  H3       1.0000 0.50950  0.38930  0.15760  Biso   1.000  H
  H4       1.0000 0.49050  0.88930  0.34240  Biso   1.000  H
  H5       1.0000 0.39460  0.80090  0.77710  Biso   1.000  H
  H6       1.0000 0.60540  0.30090  0.72290  Biso   1.000  H
  H7       1.0000 0.60540  0.19910  0.22290  Biso   1.000  H
  H8       1.0000 0.39460  0.69910  0.27710  Biso   1.000  H
  H9       1.0000 0.26670  0.66950  0.84200  Biso   1.000  H
  H10      1.0000 0.73330  0.16950  0.65800  Biso   1.000  H
  H11      1.0000 0.73330  0.33050  0.15800  Biso   1.000  H
  H12      1.0000 0.26670  0.83050  0.34200  Biso   1.000  H
  N1       1.0000 0.62130  0.83200  0.98713  Biso   1.000  N
  N2       1.0000 0.37870  0.33200  0.51287  Biso   1.000  N
  N3       1.0000 0.37870  0.16800  0.01287  Biso   1.000  N
  N4       1.0000 0.62130  0.66800  0.48713  Biso   1.000  N
  N5       1.0000 0.33360  0.04010  0.93311  Biso   1.000  N
  N6       1.0000 0.66640  0.54010  0.56689  Biso   1.000  N
  N7       1.0000 0.66640  0.95990  0.06689  Biso   1.000  N
  N8       1.0000 0.33360  0.45990  0.43311  Biso   1.000  N
