data_image0
_cell_length_a       11.158
_cell_length_b       12.946
_cell_length_c       13.292
_cell_angle_alpha    97.478
_cell_angle_beta     112.381
_cell_angle_gamma    104.018

_symmetry_space_group_name_H-M    "P 1"
_symmetry_int_tables_number       1

loop_
  _symmetry_equiv_pos_as_xyz
  'x, y, z'

loop_
  _atom_site_label
  _atom_site_occupancy
  _atom_site_fract_x
  _atom_site_fract_y
  _atom_site_fract_z
  _atom_site_thermal_displace_type
  _atom_site_B_iso_or_equiv
  _atom_site_type_symbol
  Mo1      1.0000 0.03259  0.87804  0.23165  Biso   1.000  Mo
  Mo2      1.0000 0.96741  0.12196  0.76835  Biso   1.000  Mo
  Mo3      1.0000 0.07692  0.16492  0.26671  Biso   1.000  Mo
  Mo4      1.0000 0.92308  0.83508  0.73329  Biso   1.000  Mo
  Mo5      1.0000 0.74962  0.10242  0.03839  Biso   1.000  Mo
  Mo6      1.0000 0.25038  0.89758  0.96161  Biso   1.000  Mo
  Mo7      1.0000 0.04277  0.28613  0.03582  Biso   1.000  Mo
  Mo8      1.0000 0.95723  0.71387  0.96418  Biso   1.000  Mo
  Mo9      1.0000 0.70539  0.81607  0.99891  Biso   1.000  Mo
  Mo10     1.0000 0.29461  0.18393  0.00109  Biso   1.000  Mo
  Mo11     1.0000 0.67332  0.94170  0.77254  Biso   1.000  Mo
  Mo12     1.0000 0.32668  0.05830  0.22746  Biso   1.000  Mo
  P1       1.0000 0.00000  0.00000  0.00000  Biso   1.000  P
  O1       1.0000 0.56840  0.72790  0.99860  Biso   1.000  O
  O2       1.0000 0.43160  0.27210  0.00140  Biso   1.000  O
  O3       1.0000 0.04330  0.81460  0.33490  Biso   1.000  O
  O4       1.0000 0.95670  0.18540  0.66510  Biso   1.000  O
  O5       1.0000 0.06160  0.41840  0.05450  Biso   1.000  O
  O6       1.0000 0.93840  0.58160  0.94550  Biso   1.000  O
  O7       1.0000 0.97730  0.09860  0.05640  Biso   1.000  O
  O8       1.0000 0.02270  0.90140  0.94360  Biso   1.000  O
  O9       1.0000 0.94810  0.89470  0.02990  Biso   1.000  O
  O10      1.0000 0.05190  0.10530  0.97010  Biso   1.000  O
  O11      1.0000 0.10540  0.23390  0.39320  Biso   1.000  O
  O12      1.0000 0.89460  0.76610  0.60680  Biso   1.000  O
  O13      1.0000 0.63320  0.14800  0.05990  Biso   1.000  O
  O14      1.0000 0.36680  0.85200  0.94010  Biso   1.000  O
  O15      1.0000 0.88100  0.12910  0.18950  Biso   1.000  O
  O16      1.0000 0.11900  0.87090  0.81050  Biso   1.000  O
  O17      1.0000 0.68990  0.95140  0.04690  Biso   1.000  O
  O18      1.0000 0.31010  0.04860  0.95310  Biso   1.000  O
  O19      1.0000 0.09850  0.27140  0.19310  Biso   1.000  O
  O20      1.0000 0.90150  0.72860  0.80690  Biso   1.000  O
  O21      1.0000 0.07370  0.01430  0.13240  Biso   1.000  O
  O22      1.0000 0.92630  0.98570  0.86760  Biso   1.000  O
  O23      1.0000 0.84370  0.97310  0.97060  Biso   1.000  O
  O24      1.0000 0.15630  0.02690  0.02940  Biso   1.000  O
  O25      1.0000 0.66780  0.04760  0.88240  Biso   1.000  O
  O26      1.0000 0.33220  0.95240  0.11760  Biso   1.000  O
  O27      1.0000 0.85970  0.22710  0.02440  Biso   1.000  O
  O28      1.0000 0.14030  0.77290  0.97560  Biso   1.000  O
  O29      1.0000 0.21870  0.93880  0.26350  Biso   1.000  O
  O30      1.0000 0.78130  0.06120  0.73650  Biso   1.000  O
  O31      1.0000 0.02880  0.01230  0.28570  Biso   1.000  O
  O32      1.0000 0.97120  0.98770  0.71430  Biso   1.000  O
  O33      1.0000 0.63500  0.83440  0.84850  Biso   1.000  O
  O34      1.0000 0.36500  0.16560  0.15150  Biso   1.000  O
  O35      1.0000 0.83790  0.83070  0.14350  Biso   1.000  O
  O36      1.0000 0.16210  0.16930  0.85650  Biso   1.000  O
  O37      1.0000 0.52070  0.91590  0.66760  Biso   1.000  O
  O38      1.0000 0.47930  0.08410  0.33240  Biso   1.000  O
  O39      1.0000 0.21800  0.28570  0.05440  Biso   1.000  O
  O40      1.0000 0.78200  0.71430  0.94560  Biso   1.000  O
  O41      1.0000 0.97480  0.23970  0.88280  Biso   1.000  O
  O42      1.0000 0.02520  0.76030  0.11720  Biso   1.000  O
  O43      1.0000 0.24920  0.14910  0.29320  Biso   1.000  O
  O44      1.0000 0.75080  0.85090  0.70680  Biso   1.000  O
  Cu1      1.0000 0.50000  0.50000  0.00000  Biso   1.000  Cu
  N1       1.0000 0.57370  0.54580  0.32460  Biso   1.000  N
  N2       1.0000 0.42630  0.45420  0.67540  Biso   1.000  N
  N3       1.0000 0.56350  0.54010  0.15670  Biso   1.000  N
  N4       1.0000 0.43650  0.45990  0.84330  Biso   1.000  N
  C1       1.0000 0.50140  0.49710  0.21490  Biso   1.000  C
  C2       1.0000 0.49860  0.50290  0.78510  Biso   1.000  C
  H1       1.0000 0.41850  0.44050  0.18410  Biso   1.000  H
  H2       1.0000 0.58150  0.55950  0.81590  Biso   1.000  H
  C3       1.0000 0.57250  0.60580  0.50850  Biso   1.000  C
  C4       1.0000 0.42750  0.39420  0.49150  Biso   1.000  C
  H3       1.0000 0.62050  0.67710  0.51290  Biso   1.000  H
  H4       1.0000 0.37950  0.32290  0.48710  Biso   1.000  H
  C5       1.0000 0.68860  0.62650  0.33780  Biso   1.000  C
  C6       1.0000 0.31140  0.37350  0.66220  Biso   1.000  C
  H5       1.0000 0.75710  0.67440  0.40440  Biso   1.000  H
  H6       1.0000 0.24290  0.32560  0.59560  Biso   1.000  H
  C7       1.0000 0.53820  0.58340  0.59280  Biso   1.000  C
  C8       1.0000 0.46180  0.41660  0.40720  Biso   1.000  C
  H7       1.0000 0.56470  0.63930  0.65590  Biso   1.000  H
  H8       1.0000 0.43530  0.36070  0.34410  Biso   1.000  H
  C9       1.0000 0.68010  0.62060  0.23300  Biso   1.000  C
  C10      1.0000 0.31990  0.37940  0.76700  Biso   1.000  C
  H9       1.0000 0.74440  0.66500  0.21530  Biso   1.000  H
  H10      1.0000 0.25560  0.33500  0.78470  Biso   1.000  H
  C11      1.0000 0.53480  0.52050  0.41450  Biso   1.000  C
  C12      1.0000 0.46520  0.47950  0.58550  Biso   1.000  C
  N5       1.0000 0.61020  0.89460  0.33980  Biso   1.000  N
  N6       1.0000 0.38980  0.10540  0.66020  Biso   1.000  N
  N7       1.0000 0.13900  0.59290  0.31850  Biso   1.000  N
  N8       1.0000 0.86100  0.40710  0.68150  Biso   1.000  N
  C13      1.0000 0.40660  0.73460  0.23590  Biso   1.000  C
  C14      1.0000 0.59340  0.26540  0.76410  Biso   1.000  C
  H11      1.0000 0.43000  0.72760  0.17580  Biso   1.000  H
  H12      1.0000 0.57000  0.27240  0.82420  Biso   1.000  H
  C15      1.0000 0.33650  0.76020  0.41610  Biso   1.000  C
  C16      1.0000 0.66350  0.23980  0.58390  Biso   1.000  C
  H13      1.0000 0.31090  0.76890  0.47470  Biso   1.000  H
  H14      1.0000 0.68910  0.23110  0.52530  Biso   1.000  H
  C17      1.0000 0.25800  0.67300  0.32180  Biso   1.000  C
  C18      1.0000 0.74200  0.32700  0.67820  Biso   1.000  C
  C19      1.0000 0.45270  0.83370  0.42200  Biso   1.000  C
  C20      1.0000 0.54730  0.16630  0.57800  Biso   1.000  C
  H15      1.0000 0.50720  0.89170  0.48510  Biso   1.000  H
  H16      1.0000 0.49280  0.10830  0.51490  Biso   1.000  H
  C21      1.0000 0.81680  0.00950  0.40760  Biso   1.000  C
  C22      1.0000 0.18320  0.99050  0.59240  Biso   1.000  C
  H17      1.0000 0.90440  0.05530  0.45670  Biso   1.000  H
  H18      1.0000 0.09560  0.94470  0.54330  Biso   1.000  H
  C23      1.0000 0.29070  0.66000  0.23090  Biso   1.000  C
  C24      1.0000 0.70930  0.34000  0.76910  Biso   1.000  C
  H19      1.0000 0.23550  0.60220  0.16760  Biso   1.000  H
  H20      1.0000 0.76450  0.39780  0.83240  Biso   1.000  H
  C25      1.0000 0.48740  0.81980  0.33150  Biso   1.000  C
  C26      1.0000 0.51260  0.18020  0.66850  Biso   1.000  C
  C27      1.0000 0.72850  0.94570  0.43580  Biso   1.000  C
  C28      1.0000 0.27150  0.05430  0.56420  Biso   1.000  C
  H21      1.0000 0.74390  0.93710  0.50770  Biso   1.000  H
  H22      1.0000 0.25610  0.06290  0.49230  Biso   1.000  H
  N9       1.0000 0.75790  0.99660  0.29640  Biso   1.000  N
  N10      1.0000 0.24210  0.00340  0.70360  Biso   1.000  N
  H23      1.0000 0.79560  0.02780  0.25780  Biso   1.000  H
  H24      1.0000 0.20440  0.97220  0.74220  Biso   1.000  H
  N11      1.0000 0.93440  0.48170  0.25900  Biso   1.000  N
  N12      1.0000 0.06560  0.51830  0.74100  Biso   1.000  N
  C29      1.0000 0.63280  0.92820  0.25600  Biso   1.000  C
  C30      1.0000 0.36720  0.07180  0.74400  Biso   1.000  C
  H25      1.0000 0.57010  0.90660  0.18090  Biso   1.000  H
  H26      1.0000 0.42990  0.09340  0.81910  Biso   1.000  H
  C31      1.0000 0.01640  0.55390  0.23150  Biso   1.000  C
  C32      1.0000 0.98360  0.44610  0.76850  Biso   1.000  C
  H27      1.0000 0.99220  0.57360  0.16350  Biso   1.000  H
  H28      1.0000 0.00780  0.42640  0.83650  Biso   1.000  H
  C33      1.0000 0.13200  0.53980  0.40090  Biso   1.000  C
  C34      1.0000 0.86800  0.46020  0.59910  Biso   1.000  C
  H29      1.0000 0.20300  0.55130  0.47100  Biso   1.000  H
  H30      1.0000 0.79700  0.44870  0.52900  Biso   1.000  H
  C35      1.0000 0.01000  0.47140  0.36430  Biso   1.000  C
  C36      1.0000 0.99000  0.52860  0.63570  Biso   1.000  C
  H31      1.0000 0.97880  0.42390  0.40230  Biso   1.000  H
  H32      1.0000 0.02120  0.57610  0.59770  Biso   1.000  H
  O45      1.0000 0.71750  0.38760  0.05220  Biso   1.000  O
  O46      1.0000 0.28250  0.61240  0.94780  Biso   1.000  O
  H33      1.0000 0.69230  0.31980  0.05390  Biso   1.000  H
  H34      1.0000 0.30770  0.68020  0.94610  Biso   1.000  H
  H35      1.0000 0.78680  0.41990  0.11820  Biso   1.000  H
  H36      1.0000 0.21320  0.58010  0.88180  Biso   1.000  H
  O47      1.0000 0.68990  0.30540  0.29180  Biso   1.000  O
  O48      1.0000 0.31010  0.69460  0.70820  Biso   1.000  O
  O49      1.0000 0.88700  0.25900  0.45400  Biso   1.000  O
  O50      1.0000 0.11300  0.74100  0.54600  Biso   1.000  O
