data_image0
_cell_length_a       17.296
_cell_length_b       13.027
_cell_length_c       13.818
_cell_angle_alpha    90
_cell_angle_beta     92.181
_cell_angle_gamma    90

_symmetry_space_group_name_H-M    "P 1"
_symmetry_int_tables_number       1

loop_
  _symmetry_equiv_pos_as_xyz
  'x, y, z'

loop_
  _atom_site_label
  _atom_site_occupancy
  _atom_site_fract_x
  _atom_site_fract_y
  _atom_site_fract_z
  _atom_site_thermal_displace_type
  _atom_site_B_iso_or_equiv
  _atom_site_type_symbol
  Fe1      1.0000 0.25382  0.00269  0.22839  Biso   1.000  Fe
  Fe2      1.0000 0.74618  0.50269  0.27161  Biso   1.000  Fe
  Fe3      1.0000 0.74618  0.99731  0.77161  Biso   1.000  Fe
  Fe4      1.0000 0.25382  0.49731  0.72839  Biso   1.000  Fe
  Cu1      1.0000 0.15269  0.29933  0.01836  Biso   1.000  Cu
  Cu2      1.0000 0.84731  0.79933  0.48164  Biso   1.000  Cu
  Cu3      1.0000 0.84731  0.70067  0.98164  Biso   1.000  Cu
  Cu4      1.0000 0.15269  0.20067  0.51836  Biso   1.000  Cu
  Cu5      1.0000 0.35600  0.73263  0.46948  Biso   1.000  Cu
  Cu6      1.0000 0.64400  0.23263  0.03052  Biso   1.000  Cu
  Cu7      1.0000 0.64400  0.26737  0.53052  Biso   1.000  Cu
  Cu8      1.0000 0.35600  0.76737  0.96948  Biso   1.000  Cu
  F1       1.0000 0.08740  0.64930  0.19530  Biso   1.000  F
  F2       1.0000 0.91260  0.14930  0.30470  Biso   1.000  F
  F3       1.0000 0.91260  0.35070  0.80470  Biso   1.000  F
  F4       1.0000 0.08740  0.85070  0.69530  Biso   1.000  F
  F5       1.0000 0.42850  0.34930  0.26680  Biso   1.000  F
  F6       1.0000 0.57150  0.84930  0.23320  Biso   1.000  F
  F7       1.0000 0.57150  0.65070  0.73320  Biso   1.000  F
  F8       1.0000 0.42850  0.15070  0.76680  Biso   1.000  F
  F9       1.0000 0.90050  0.07100  0.04790  Biso   1.000  F
  F10      1.0000 0.09950  0.57100  0.45210  Biso   1.000  F
  F11      1.0000 0.09950  0.92900  0.95210  Biso   1.000  F
  F12      1.0000 0.90050  0.42900  0.54790  Biso   1.000  F
  F13      1.0000 0.30020  0.63090  0.18260  Biso   1.000  F
  F14      1.0000 0.69980  0.13090  0.31740  Biso   1.000  F
  F15      1.0000 0.69980  0.36910  0.81740  Biso   1.000  F
  F16      1.0000 0.30020  0.86910  0.68260  Biso   1.000  F
  F17      1.0000 0.61040  0.95270  0.47000  Biso   1.000  F
  F18      1.0000 0.38960  0.45270  0.03000  Biso   1.000  F
  F19      1.0000 0.38960  0.04730  0.53000  Biso   1.000  F
  F20      1.0000 0.61040  0.54730  0.97000  Biso   1.000  F
  N1       1.0000 0.14690  0.91260  0.20940  Biso   1.000  N
  N2       1.0000 0.85310  0.41260  0.29060  Biso   1.000  N
  N3       1.0000 0.85310  0.08740  0.79060  Biso   1.000  N
  N4       1.0000 0.14690  0.58740  0.70940  Biso   1.000  N
  N5       1.0000 0.36240  0.08820  0.24980  Biso   1.000  N
  N6       1.0000 0.63760  0.58820  0.25020  Biso   1.000  N
  N7       1.0000 0.63760  0.91180  0.75020  Biso   1.000  N
  N8       1.0000 0.36240  0.41180  0.74980  Biso   1.000  N
  N9       1.0000 0.21380  0.10880  0.12560  Biso   1.000  N
  N10      1.0000 0.78620  0.60880  0.37440  Biso   1.000  N
  N11      1.0000 0.78620  0.89120  0.87440  Biso   1.000  N
  N12      1.0000 0.21380  0.39120  0.62560  Biso   1.000  N
  N13      1.0000 0.20260  0.08790  0.33910  Biso   1.000  N
  N14      1.0000 0.79740  0.58790  0.16090  Biso   1.000  N
  N15      1.0000 0.79740  0.91210  0.66090  Biso   1.000  N
  N16      1.0000 0.20260  0.41210  0.83910  Biso   1.000  N
  N17      1.0000 0.29380  0.89420  0.32830  Biso   1.000  N
  N18      1.0000 0.70620  0.39420  0.17170  Biso   1.000  N
  N19      1.0000 0.70620  0.10580  0.67170  Biso   1.000  N
  N20      1.0000 0.29380  0.60580  0.82830  Biso   1.000  N
  N21      1.0000 0.30350  0.91790  0.11790  Biso   1.000  N
  N22      1.0000 0.69650  0.41790  0.38210  Biso   1.000  N
  N23      1.0000 0.69650  0.08210  0.88210  Biso   1.000  N
  N24      1.0000 0.30350  0.58210  0.61790  Biso   1.000  N
  N25      1.0000 0.03240  0.28140  0.04570  Biso   1.000  N
  N26      1.0000 0.96760  0.78140  0.45430  Biso   1.000  N
  N27      1.0000 0.96760  0.71860  0.95430  Biso   1.000  N
  N28      1.0000 0.03240  0.21860  0.54570  Biso   1.000  N
  N29      1.0000 0.19290  0.40080  0.14060  Biso   1.000  N
  N30      1.0000 0.80710  0.90080  0.35940  Biso   1.000  N
  N31      1.0000 0.80710  0.59920  0.85940  Biso   1.000  N
  N32      1.0000 0.19290  0.09920  0.64060  Biso   1.000  N
  N33      1.0000 0.47590  0.74820  0.47790  Biso   1.000  N
  N34      1.0000 0.52410  0.24820  0.02210  Biso   1.000  N
  N35      1.0000 0.52410  0.25180  0.52210  Biso   1.000  N
  N36      1.0000 0.47590  0.75180  0.97790  Biso   1.000  N
  C1       1.0000 0.07730  0.95830  0.20570  Biso   1.000  C
  C2       1.0000 0.92270  0.45830  0.29430  Biso   1.000  C
  C3       1.0000 0.92270  0.04170  0.79430  Biso   1.000  C
  C4       1.0000 0.07730  0.54170  0.70570  Biso   1.000  C
  H1       1.0000 0.07520  0.02960  0.20820  Biso   1.000  H
  H2       1.0000 0.92480  0.52960  0.29180  Biso   1.000  H
  H3       1.0000 0.92480  0.97040  0.79180  Biso   1.000  H
  H4       1.0000 0.07520  0.47040  0.70820  Biso   1.000  H
  C5       1.0000 0.00930  0.90480  0.19850  Biso   1.000  C
  C6       1.0000 0.99070  0.40480  0.30150  Biso   1.000  C
  C7       1.0000 0.99070  0.09520  0.80150  Biso   1.000  C
  C8       1.0000 0.00930  0.59520  0.69850  Biso   1.000  C
  H5       1.0000 0.96210  0.93920  0.19590  Biso   1.000  H
  H6       1.0000 0.03790  0.43920  0.30410  Biso   1.000  H
  H7       1.0000 0.03790  0.06080  0.80410  Biso   1.000  H
  H8       1.0000 0.96210  0.56080  0.69590  Biso   1.000  H
  C9       1.0000 0.01160  0.80070  0.19500  Biso   1.000  C
  C10      1.0000 0.98840  0.30070  0.30500  Biso   1.000  C
  C11      1.0000 0.98840  0.19930  0.80500  Biso   1.000  C
  C12      1.0000 0.01160  0.69930  0.69500  Biso   1.000  C
  H9       1.0000 0.96620  0.76250  0.19070  Biso   1.000  H
  H10      1.0000 0.03380  0.26250  0.30930  Biso   1.000  H
  H11      1.0000 0.03380  0.23750  0.80930  Biso   1.000  H
  H12      1.0000 0.96620  0.73750  0.69070  Biso   1.000  H
  C13      1.0000 0.08230  0.75320  0.19810  Biso   1.000  C
  C14      1.0000 0.91770  0.25320  0.30190  Biso   1.000  C
  C15      1.0000 0.91770  0.24680  0.80190  Biso   1.000  C
  C16      1.0000 0.08230  0.74680  0.69810  Biso   1.000  C
  C17      1.0000 0.14820  0.81160  0.20350  Biso   1.000  C
  C18      1.0000 0.85180  0.31160  0.29650  Biso   1.000  C
  C19      1.0000 0.85180  0.18840  0.79650  Biso   1.000  C
  C20      1.0000 0.14820  0.68840  0.70350  Biso   1.000  C
  H13      1.0000 0.19590  0.77860  0.20290  Biso   1.000  H
  H14      1.0000 0.80410  0.27860  0.29710  Biso   1.000  H
  H15      1.0000 0.80410  0.22140  0.79710  Biso   1.000  H
  H16      1.0000 0.19590  0.72140  0.70290  Biso   1.000  H
  C21      1.0000 0.43120  0.04180  0.25550  Biso   1.000  C
  C22      1.0000 0.56880  0.54180  0.24450  Biso   1.000  C
  C23      1.0000 0.56880  0.95820  0.74450  Biso   1.000  C
  C24      1.0000 0.43120  0.45820  0.75550  Biso   1.000  C
  H17      1.0000 0.43250  0.97050  0.25240  Biso   1.000  H
  H18      1.0000 0.56750  0.47050  0.24760  Biso   1.000  H
  H19      1.0000 0.56750  0.02950  0.74760  Biso   1.000  H
  H20      1.0000 0.43250  0.52950  0.75240  Biso   1.000  H
  C25      1.0000 0.50030  0.09360  0.26590  Biso   1.000  C
  C26      1.0000 0.49970  0.59360  0.23410  Biso   1.000  C
  C27      1.0000 0.49970  0.90640  0.73410  Biso   1.000  C
  C28      1.0000 0.50030  0.40640  0.76590  Biso   1.000  C
  H21      1.0000 0.54650  0.05700  0.26940  Biso   1.000  H
  H22      1.0000 0.45350  0.55700  0.23060  Biso   1.000  H
  H23      1.0000 0.45350  0.94300  0.73060  Biso   1.000  H
  H24      1.0000 0.54650  0.44300  0.76940  Biso   1.000  H
  C29      1.0000 0.50160  0.19830  0.27090  Biso   1.000  C
  C30      1.0000 0.49840  0.69830  0.22910  Biso   1.000  C
  C31      1.0000 0.49840  0.80170  0.72910  Biso   1.000  C
  C32      1.0000 0.50160  0.30170  0.77090  Biso   1.000  C
  H25      1.0000 0.54740  0.23530  0.27900  Biso   1.000  H
  H26      1.0000 0.45260  0.73530  0.22100  Biso   1.000  H
  H27      1.0000 0.45260  0.76470  0.72100  Biso   1.000  H
  H28      1.0000 0.54740  0.26470  0.77900  Biso   1.000  H
  C33      1.0000 0.43190  0.24410  0.26330  Biso   1.000  C
  C34      1.0000 0.56810  0.74410  0.23670  Biso   1.000  C
  C35      1.0000 0.56810  0.75590  0.73670  Biso   1.000  C
  C36      1.0000 0.43190  0.25590  0.76330  Biso   1.000  C
  C37      1.0000 0.36390  0.19110  0.25280  Biso   1.000  C
  C38      1.0000 0.63610  0.69110  0.24720  Biso   1.000  C
  C39      1.0000 0.63610  0.80890  0.74720  Biso   1.000  C
  C40      1.0000 0.36390  0.30890  0.75280  Biso   1.000  C
  H29      1.0000 0.31750  0.22720  0.24760  Biso   1.000  H
  H30      1.0000 0.68250  0.72720  0.25240  Biso   1.000  H
  H31      1.0000 0.68250  0.77280  0.75240  Biso   1.000  H
  H32      1.0000 0.31750  0.27280  0.74760  Biso   1.000  H
  C41      1.0000 0.19100  0.17280  0.07820  Biso   1.000  C
  C42      1.0000 0.80900  0.67280  0.42180  Biso   1.000  C
  C43      1.0000 0.80900  0.82720  0.92180  Biso   1.000  C
  C44      1.0000 0.19100  0.32720  0.57820  Biso   1.000  C
  C45      1.0000 0.17860  0.13220  0.40410  Biso   1.000  C
  C46      1.0000 0.82140  0.63220  0.09590  Biso   1.000  C
  C47      1.0000 0.82140  0.86780  0.59590  Biso   1.000  C
  C48      1.0000 0.17860  0.36780  0.90410  Biso   1.000  C
  C49      1.0000 0.31800  0.83240  0.38070  Biso   1.000  C
  C50      1.0000 0.68200  0.33240  0.11930  Biso   1.000  C
  C51      1.0000 0.68200  0.16760  0.61930  Biso   1.000  C
  C52      1.0000 0.31800  0.66760  0.88070  Biso   1.000  C
  C53      1.0000 0.32500  0.86690  0.05770  Biso   1.000  C
  C54      1.0000 0.67500  0.36690  0.44230  Biso   1.000  C
  C55      1.0000 0.67500  0.13310  0.94230  Biso   1.000  C
  C56      1.0000 0.32500  0.63310  0.55770  Biso   1.000  C
  C57      1.0000 0.98310  0.35730  0.05100  Biso   1.000  C
  C58      1.0000 0.01690  0.85730  0.44900  Biso   1.000  C
  C59      1.0000 0.01690  0.64270  0.94900  Biso   1.000  C
  C60      1.0000 0.98310  0.14270  0.55100  Biso   1.000  C
  H33      1.0000 0.00290  0.42370  0.05150  Biso   1.000  H
  H34      1.0000 0.99710  0.92370  0.44850  Biso   1.000  H
  H35      1.0000 0.99710  0.57630  0.94850  Biso   1.000  H
  H36      1.0000 0.00290  0.07630  0.55150  Biso   1.000  H
  C61      1.0000 0.90310  0.34600  0.05600  Biso   1.000  C
  C62      1.0000 0.09690  0.84600  0.44400  Biso   1.000  C
  C63      1.0000 0.09690  0.65400  0.94400  Biso   1.000  C
  C64      1.0000 0.90310  0.15400  0.55600  Biso   1.000  C
  H37      1.0000 0.87060  0.40250  0.06050  Biso   1.000  H
  H38      1.0000 0.12940  0.90250  0.43950  Biso   1.000  H
  H39      1.0000 0.12940  0.59750  0.93950  Biso   1.000  H
  H40      1.0000 0.87060  0.09750  0.56050  Biso   1.000  H
  C65      1.0000 0.87440  0.24760  0.05380  Biso   1.000  C
  C66      1.0000 0.12560  0.74760  0.44620  Biso   1.000  C
  C67      1.0000 0.12560  0.75240  0.94620  Biso   1.000  C
  C68      1.0000 0.87440  0.25240  0.55380  Biso   1.000  C
  H41      1.0000 0.82150  0.23540  0.05560  Biso   1.000  H
  H42      1.0000 0.17850  0.73540  0.44440  Biso   1.000  H
  H43      1.0000 0.17850  0.76460  0.94440  Biso   1.000  H
  H44      1.0000 0.82150  0.26460  0.55560  Biso   1.000  H
  C69      1.0000 0.92420  0.17020  0.04920  Biso   1.000  C
  C70      1.0000 0.07580  0.67020  0.45080  Biso   1.000  C
  C71      1.0000 0.07580  0.82980  0.95080  Biso   1.000  C
  C72      1.0000 0.92420  0.32980  0.54920  Biso   1.000  C
  C73      1.0000 0.00300  0.18570  0.04580  Biso   1.000  C
  C74      1.0000 0.99700  0.68570  0.45420  Biso   1.000  C
  C75      1.0000 0.99700  0.81430  0.95420  Biso   1.000  C
  C76      1.0000 0.00300  0.31430  0.54580  Biso   1.000  C
  H45      1.0000 0.03610  0.12960  0.04360  Biso   1.000  H
  H46      1.0000 0.96390  0.62960  0.45640  Biso   1.000  H
  H47      1.0000 0.96390  0.87040  0.95640  Biso   1.000  H
  H48      1.0000 0.03610  0.37040  0.54360  Biso   1.000  H
  C77      1.0000 0.18690  0.36970  0.23020  Biso   1.000  C
  C78      1.0000 0.81310  0.86970  0.26980  Biso   1.000  C
  C79      1.0000 0.81310  0.63030  0.76980  Biso   1.000  C
  C80      1.0000 0.18690  0.13030  0.73020  Biso   1.000  C
  H49      1.0000 0.16080  0.30860  0.24090  Biso   1.000  H
  H50      1.0000 0.83920  0.80860  0.25910  Biso   1.000  H
  H51      1.0000 0.83920  0.69140  0.75910  Biso   1.000  H
  H52      1.0000 0.16080  0.19140  0.74090  Biso   1.000  H
  C81      1.0000 0.21760  0.42300  0.31090  Biso   1.000  C
  C82      1.0000 0.78240  0.92300  0.18910  Biso   1.000  C
  C83      1.0000 0.78240  0.57700  0.68910  Biso   1.000  C
  C84      1.0000 0.21760  0.07700  0.81090  Biso   1.000  C
  H53      1.0000 0.21290  0.39800  0.37340  Biso   1.000  H
  H54      1.0000 0.78710  0.89800  0.12660  Biso   1.000  H
  H55      1.0000 0.78710  0.60200  0.62660  Biso   1.000  H
  H56      1.0000 0.21290  0.10200  0.87340  Biso   1.000  H
  C85      1.0000 0.25500  0.51380  0.29370  Biso   1.000  C
  C86      1.0000 0.74500  0.01380  0.20630  Biso   1.000  C
  C87      1.0000 0.74500  0.48620  0.70630  Biso   1.000  C
  C88      1.0000 0.25500  0.98620  0.79370  Biso   1.000  C
  H57      1.0000 0.27520  0.55350  0.34460  Biso   1.000  H
  H58      1.0000 0.72480  0.05350  0.15540  Biso   1.000  H
  H59      1.0000 0.72480  0.44650  0.65540  Biso   1.000  H
  H60      1.0000 0.27520  0.94650  0.84460  Biso   1.000  H
  C89      1.0000 0.26150  0.54320  0.20220  Biso   1.000  C
  C90      1.0000 0.73850  0.04320  0.29780  Biso   1.000  C
  C91      1.0000 0.73850  0.45680  0.79780  Biso   1.000  C
  C92      1.0000 0.26150  0.95680  0.70220  Biso   1.000  C
  C93      1.0000 0.22980  0.48910  0.12590  Biso   1.000  C
  C94      1.0000 0.77020  0.98910  0.37410  Biso   1.000  C
  C95      1.0000 0.77020  0.51090  0.87410  Biso   1.000  C
  C96      1.0000 0.22980  0.01090  0.62590  Biso   1.000  C
  C97      1.0000 0.52370  0.67040  0.49110  Biso   1.000  C
  C98      1.0000 0.47630  0.17040  0.00890  Biso   1.000  C
  C99      1.0000 0.47630  0.32960  0.50890  Biso   1.000  C
  C100     1.0000 0.52370  0.82960  0.99110  Biso   1.000  C
  H61      1.0000 0.50260  0.60520  0.49790  Biso   1.000  H
  H62      1.0000 0.49740  0.10520  0.00210  Biso   1.000  H
  H63      1.0000 0.49740  0.39480  0.50210  Biso   1.000  H
  H64      1.0000 0.50260  0.89480  0.99790  Biso   1.000  H
  C101     1.0000 0.60430  0.68010  0.49570  Biso   1.000  C
  C102     1.0000 0.39570  0.18010  0.00430  Biso   1.000  C
  C103     1.0000 0.39570  0.31990  0.50430  Biso   1.000  C
  C104     1.0000 0.60430  0.81990  0.99570  Biso   1.000  C
  H65      1.0000 0.63590  0.62260  0.50200  Biso   1.000  H
  H66      1.0000 0.36410  0.12260  0.99800  Biso   1.000  H
  H67      1.0000 0.36410  0.37740  0.49800  Biso   1.000  H
  H68      1.0000 0.63590  0.87740  0.00200  Biso   1.000  H
  C105     1.0000 0.63520  0.77620  0.49060  Biso   1.000  C
  C106     1.0000 0.36480  0.27620  0.00940  Biso   1.000  C
  C107     1.0000 0.36480  0.22380  0.50940  Biso   1.000  C
  C108     1.0000 0.63520  0.72380  0.99060  Biso   1.000  C
  H69      1.0000 0.68840  0.78670  0.49580  Biso   1.000  H
  H70      1.0000 0.31160  0.28670  0.00420  Biso   1.000  H
  H71      1.0000 0.31160  0.21330  0.50420  Biso   1.000  H
  H72      1.0000 0.68840  0.71330  0.99580  Biso   1.000  H
  C109     1.0000 0.58500  0.85620  0.47770  Biso   1.000  C
  C110     1.0000 0.41500  0.35620  0.02230  Biso   1.000  C
  C111     1.0000 0.41500  0.14380  0.52230  Biso   1.000  C
  C112     1.0000 0.58500  0.64380  0.97770  Biso   1.000  C
  C113     1.0000 0.50670  0.84220  0.46970  Biso   1.000  C
  C114     1.0000 0.49330  0.34220  0.03030  Biso   1.000  C
  C115     1.0000 0.49330  0.15780  0.53030  Biso   1.000  C
  C116     1.0000 0.50670  0.65780  0.96970  Biso   1.000  C
  H73      1.0000 0.47440  0.89840  0.45860  Biso   1.000  H
  H74      1.0000 0.52560  0.39840  0.04140  Biso   1.000  H
  H75      1.0000 0.52560  0.10160  0.54140  Biso   1.000  H
  H76      1.0000 0.47440  0.60160  0.95860  Biso   1.000  H
  H77      1.0000 0.23100  0.50200  0.06500  Biso   1.000  H
  H78      1.0000 0.76900  0.00200  0.43500  Biso   1.000  H
  H79      1.0000 0.76900  0.49800  0.93500  Biso   1.000  H
  H80      1.0000 0.23100  0.99800  0.56500  Biso   1.000  H
