data_image0
_cell_length_a       17.016
_cell_length_b       12.65
_cell_length_c       13.516
_cell_angle_alpha    90
_cell_angle_beta     91.532
_cell_angle_gamma    90

_symmetry_space_group_name_H-M    "P 1"
_symmetry_int_tables_number       1

loop_
  _symmetry_equiv_pos_as_xyz
  'x, y, z'

loop_
  _atom_site_label
  _atom_site_occupancy
  _atom_site_fract_x
  _atom_site_fract_y
  _atom_site_fract_z
  _atom_site_thermal_displace_type
  _atom_site_B_iso_or_equiv
  _atom_site_type_symbol
  Fe1      1.0000 0.24712  0.50227  0.28396  Biso   1.000  Fe
  Fe2      1.0000 0.75288  0.00227  0.21604  Biso   1.000  Fe
  Fe3      1.0000 0.75288  0.49773  0.71604  Biso   1.000  Fe
  Fe4      1.0000 0.24712  0.99773  0.78396  Biso   1.000  Fe
  Cu1      1.0000 0.34802  0.80319  0.49002  Biso   1.000  Cu
  Cu2      1.0000 0.65198  0.30319  0.00998  Biso   1.000  Cu
  Cu3      1.0000 0.65198  0.19681  0.50998  Biso   1.000  Cu
  Cu4      1.0000 0.34802  0.69681  0.99002  Biso   1.000  Cu
  Cu5      1.0000 0.14827  0.23953  0.03606  Biso   1.000  Cu
  Cu6      1.0000 0.85173  0.73953  0.46394  Biso   1.000  Cu
  Cu7      1.0000 0.85173  0.76047  0.96394  Biso   1.000  Cu
  Cu8      1.0000 0.14827  0.26047  0.53606  Biso   1.000  Cu
  N1       1.0000 0.34710  0.41820  0.29530  Biso   1.000  N
  N2       1.0000 0.65290  0.91820  0.20470  Biso   1.000  N
  N3       1.0000 0.65290  0.58180  0.70470  Biso   1.000  N
  N4       1.0000 0.34710  0.08180  0.79530  Biso   1.000  N
  N5       1.0000 0.14470  0.58230  0.26790  Biso   1.000  N
  N6       1.0000 0.85530  0.08230  0.23210  Biso   1.000  N
  N7       1.0000 0.85530  0.41770  0.73210  Biso   1.000  N
  N8       1.0000 0.14470  0.91770  0.76790  Biso   1.000  N
  N9       1.0000 0.28560  0.60410  0.38140  Biso   1.000  N
  N10      1.0000 0.71440  0.10410  0.11860  Biso   1.000  N
  N11      1.0000 0.71440  0.39590  0.61860  Biso   1.000  N
  N12      1.0000 0.28560  0.89590  0.88140  Biso   1.000  N
  N13      1.0000 0.29230  0.58570  0.17530  Biso   1.000  N
  N14      1.0000 0.70770  0.08570  0.32470  Biso   1.000  N
  N15      1.0000 0.70770  0.41430  0.82470  Biso   1.000  N
  N16      1.0000 0.29230  0.91430  0.67530  Biso   1.000  N
  N17      1.0000 0.20720  0.39920  0.18590  Biso   1.000  N
  N18      1.0000 0.79280  0.89920  0.31410  Biso   1.000  N
  N19      1.0000 0.79280  0.60080  0.81410  Biso   1.000  N
  N20      1.0000 0.20720  0.10080  0.68590  Biso   1.000  N
  N21      1.0000 0.20430  0.42030  0.39060  Biso   1.000  N
  N22      1.0000 0.79570  0.92030  0.10940  Biso   1.000  N
  N23      1.0000 0.79570  0.57970  0.60940  Biso   1.000  N
  N24      1.0000 0.20430  0.07970  0.89060  Biso   1.000  N
  N25      1.0000 0.46760  0.77960  0.45630  Biso   1.000  N
  N26      1.0000 0.53240  0.27960  0.04370  Biso   1.000  N
  N27      1.0000 0.53240  0.22040  0.54370  Biso   1.000  N
  N28      1.0000 0.46760  0.72040  0.95630  Biso   1.000  N
  N29      1.0000 0.30620  0.90030  0.36640  Biso   1.000  N
  N30      1.0000 0.69380  0.40030  0.13360  Biso   1.000  N
  N31      1.0000 0.69380  0.09970  0.63360  Biso   1.000  N
  N32      1.0000 0.30620  0.59970  0.86640  Biso   1.000  N
  N33      1.0000 0.02750  0.24980  0.00750  Biso   1.000  N
  N34      1.0000 0.97250  0.74980  0.49250  Biso   1.000  N
  N35      1.0000 0.97250  0.75020  0.99250  Biso   1.000  N
  N36      1.0000 0.02750  0.25020  0.50750  Biso   1.000  N
  C1       1.0000 0.41790  0.46750  0.29420  Biso   1.000  C
  C2       1.0000 0.58210  0.96750  0.20580  Biso   1.000  C
  C3       1.0000 0.58210  0.53250  0.70580  Biso   1.000  C
  C4       1.0000 0.41790  0.03250  0.79420  Biso   1.000  C
  H1       1.0000 0.41970  0.54080  0.29040  Biso   1.000  H
  H2       1.0000 0.58030  0.04080  0.20960  Biso   1.000  H
  H3       1.0000 0.58030  0.45920  0.70960  Biso   1.000  H
  H4       1.0000 0.41970  0.95920  0.79040  Biso   1.000  H
  C5       1.0000 0.48830  0.41000  0.29860  Biso   1.000  C
  C6       1.0000 0.51170  0.91000  0.20140  Biso   1.000  C
  C7       1.0000 0.51170  0.59000  0.70140  Biso   1.000  C
  C8       1.0000 0.48830  0.09000  0.79860  Biso   1.000  C
  H5       1.0000 0.53600  0.44600  0.29780  Biso   1.000  H
  H6       1.0000 0.46400  0.94600  0.20220  Biso   1.000  H
  H7       1.0000 0.46400  0.55400  0.70220  Biso   1.000  H
  H8       1.0000 0.53600  0.05400  0.79780  Biso   1.000  H
  C9       1.0000 0.48820  0.30060  0.30420  Biso   1.000  C
  C10      1.0000 0.51180  0.80060  0.19580  Biso   1.000  C
  C11      1.0000 0.51180  0.69940  0.69580  Biso   1.000  C
  C12      1.0000 0.48820  0.19940  0.80420  Biso   1.000  C
  H9       1.0000 0.53420  0.26090  0.30830  Biso   1.000  H
  H10      1.0000 0.46580  0.76090  0.19170  Biso   1.000  H
  H11      1.0000 0.46580  0.73910  0.69170  Biso   1.000  H
  H12      1.0000 0.53420  0.23910  0.80830  Biso   1.000  H
  C13      1.0000 0.41460  0.25560  0.30310  Biso   1.000  C
  C14      1.0000 0.58540  0.75560  0.19690  Biso   1.000  C
  C15      1.0000 0.58540  0.74440  0.69690  Biso   1.000  C
  C16      1.0000 0.41460  0.24440  0.80310  Biso   1.000  C
  C17      1.0000 0.34610  0.31260  0.30060  Biso   1.000  C
  C18      1.0000 0.65390  0.81260  0.19940  Biso   1.000  C
  C19      1.0000 0.65390  0.68740  0.69940  Biso   1.000  C
  C20      1.0000 0.34610  0.18740  0.80060  Biso   1.000  C
  H13      1.0000 0.29820  0.27740  0.30250  Biso   1.000  H
  H14      1.0000 0.70180  0.77740  0.19750  Biso   1.000  H
  H15      1.0000 0.70180  0.72260  0.69750  Biso   1.000  H
  H16      1.0000 0.29820  0.22260  0.80250  Biso   1.000  H
  C21      1.0000 0.07530  0.52980  0.26070  Biso   1.000  C
  C22      1.0000 0.92470  0.02980  0.23930  Biso   1.000  C
  C23      1.0000 0.92470  0.47020  0.73930  Biso   1.000  C
  C24      1.0000 0.07530  0.97020  0.76070  Biso   1.000  C
  H17      1.0000 0.07560  0.45630  0.26260  Biso   1.000  H
  H18      1.0000 0.92440  0.95630  0.23740  Biso   1.000  H
  H19      1.0000 0.92440  0.54370  0.73740  Biso   1.000  H
  H20      1.0000 0.07560  0.04370  0.76260  Biso   1.000  H
  C25      1.0000 0.00320  0.58280  0.25030  Biso   1.000  C
  C26      1.0000 0.99680  0.08280  0.24970  Biso   1.000  C
  C27      1.0000 0.99680  0.41720  0.74970  Biso   1.000  C
  C28      1.0000 0.00320  0.91720  0.75030  Biso   1.000  C
  H21      1.0000 0.95660  0.54460  0.24510  Biso   1.000  H
  H22      1.0000 0.04340  0.04460  0.25490  Biso   1.000  H
  H23      1.0000 0.04340  0.45540  0.75490  Biso   1.000  H
  H24      1.0000 0.95660  0.95540  0.74510  Biso   1.000  H
  C29      1.0000 0.00170  0.69270  0.24790  Biso   1.000  C
  C30      1.0000 0.99830  0.19270  0.25210  Biso   1.000  C
  C31      1.0000 0.99830  0.30730  0.75210  Biso   1.000  C
  C32      1.0000 0.00170  0.80730  0.74790  Biso   1.000  C
  H25      1.0000 0.95490  0.73030  0.24090  Biso   1.000  H
  H26      1.0000 0.04510  0.23030  0.25910  Biso   1.000  H
  H27      1.0000 0.04510  0.26970  0.75910  Biso   1.000  H
  H28      1.0000 0.95490  0.76970  0.74090  Biso   1.000  H
  C33      1.0000 0.07280  0.74220  0.25640  Biso   1.000  C
  C34      1.0000 0.92720  0.24220  0.24360  Biso   1.000  C
  C35      1.0000 0.92720  0.25780  0.74360  Biso   1.000  C
  C36      1.0000 0.07280  0.75780  0.75640  Biso   1.000  C
  C37      1.0000 0.14290  0.68790  0.26490  Biso   1.000  C
  C38      1.0000 0.85710  0.18790  0.23510  Biso   1.000  C
  C39      1.0000 0.85710  0.31210  0.73510  Biso   1.000  C
  C40      1.0000 0.14290  0.81210  0.76490  Biso   1.000  C
  H29      1.0000 0.18980  0.72540  0.26870  Biso   1.000  H
  H30      1.0000 0.81020  0.22540  0.23130  Biso   1.000  H
  H31      1.0000 0.81020  0.27460  0.73130  Biso   1.000  H
  H32      1.0000 0.18980  0.77460  0.76870  Biso   1.000  H
  C41      1.0000 0.30860  0.66760  0.43370  Biso   1.000  C
  C42      1.0000 0.69140  0.16760  0.06630  Biso   1.000  C
  C43      1.0000 0.69140  0.33240  0.56630  Biso   1.000  C
  C44      1.0000 0.30860  0.83240  0.93370  Biso   1.000  C
  C45      1.0000 0.31820  0.63080  0.10840  Biso   1.000  C
  C46      1.0000 0.68180  0.13080  0.39160  Biso   1.000  C
  C47      1.0000 0.68180  0.36920  0.89160  Biso   1.000  C
  C48      1.0000 0.31820  0.86920  0.60840  Biso   1.000  C
  C49      1.0000 0.18560  0.33910  0.12930  Biso   1.000  C
  C50      1.0000 0.81440  0.83910  0.37070  Biso   1.000  C
  C51      1.0000 0.81440  0.66090  0.87070  Biso   1.000  C
  C52      1.0000 0.18560  0.16090  0.62930  Biso   1.000  C
  C53      1.0000 0.18040  0.36970  0.45480  Biso   1.000  C
  C54      1.0000 0.81960  0.86970  0.04520  Biso   1.000  C
  C55      1.0000 0.81960  0.63030  0.54520  Biso   1.000  C
  C56      1.0000 0.18040  0.13030  0.95480  Biso   1.000  C
  C57      1.0000 0.51940  0.86000  0.44700  Biso   1.000  C
  C58      1.0000 0.48060  0.36000  0.05300  Biso   1.000  C
  C59      1.0000 0.48060  0.14000  0.55300  Biso   1.000  C
  C60      1.0000 0.51940  0.64000  0.94700  Biso   1.000  C
  H33      1.0000 0.50050  0.92900  0.44520  Biso   1.000  H
  H34      1.0000 0.49950  0.42900  0.05480  Biso   1.000  H
  H35      1.0000 0.49950  0.07100  0.55480  Biso   1.000  H
  H36      1.0000 0.50050  0.57100  0.94520  Biso   1.000  H
  C61      1.0000 0.59870  0.84340  0.44030  Biso   1.000  C
  C62      1.0000 0.40130  0.34340  0.05970  Biso   1.000  C
  C63      1.0000 0.40130  0.15660  0.55970  Biso   1.000  C
  C64      1.0000 0.59870  0.65660  0.94030  Biso   1.000  C
  H37      1.0000 0.63260  0.90050  0.43400  Biso   1.000  H
  H38      1.0000 0.36740  0.40050  0.06600  Biso   1.000  H
  H39      1.0000 0.36740  0.09950  0.56600  Biso   1.000  H
  H40      1.0000 0.63260  0.59950  0.93400  Biso   1.000  H
  C65      1.0000 0.62850  0.74010  0.44280  Biso   1.000  C
  C66      1.0000 0.37150  0.24010  0.05720  Biso   1.000  C
  C67      1.0000 0.37150  0.25990  0.55720  Biso   1.000  C
  C68      1.0000 0.62850  0.75990  0.94280  Biso   1.000  C
  H41      1.0000 0.68210  0.72620  0.43920  Biso   1.000  H
  H42      1.0000 0.31790  0.22620  0.06080  Biso   1.000  H
  H43      1.0000 0.31790  0.27380  0.56080  Biso   1.000  H
  H44      1.0000 0.68210  0.77380  0.93920  Biso   1.000  H
  C69      1.0000 0.57390  0.66060  0.45090  Biso   1.000  C
  C70      1.0000 0.42610  0.16060  0.04910  Biso   1.000  C
  C71      1.0000 0.42610  0.33940  0.54910  Biso   1.000  C
  C72      1.0000 0.57390  0.83940  0.95090  Biso   1.000  C
  C73      1.0000 0.49520  0.68110  0.45690  Biso   1.000  C
  C74      1.0000 0.50480  0.18110  0.04310  Biso   1.000  C
  C75      1.0000 0.50480  0.31890  0.54310  Biso   1.000  C
  C76      1.0000 0.49520  0.81890  0.95690  Biso   1.000  C
  H45      1.0000 0.46030  0.62500  0.46150  Biso   1.000  H
  H46      1.0000 0.53970  0.12500  0.03850  Biso   1.000  H
  H47      1.0000 0.53970  0.37500  0.53850  Biso   1.000  H
  H48      1.0000 0.46030  0.87500  0.96150  Biso   1.000  H
  C77      1.0000 0.31440  0.86890  0.27390  Biso   1.000  C
  C78      1.0000 0.68560  0.36890  0.22610  Biso   1.000  C
  C79      1.0000 0.68560  0.13110  0.72610  Biso   1.000  C
  C80      1.0000 0.31440  0.63110  0.77390  Biso   1.000  C
  H49      1.0000 0.34220  0.80680  0.26330  Biso   1.000  H
  H50      1.0000 0.65780  0.30680  0.23670  Biso   1.000  H
  H51      1.0000 0.65780  0.19320  0.73670  Biso   1.000  H
  H52      1.0000 0.34220  0.69320  0.76330  Biso   1.000  H
  C81      1.0000 0.28460  0.92160  0.19210  Biso   1.000  C
  C82      1.0000 0.71540  0.42160  0.30790  Biso   1.000  C
  C83      1.0000 0.71540  0.07840  0.80790  Biso   1.000  C
  C84      1.0000 0.28460  0.57840  0.69210  Biso   1.000  C
  H53      1.0000 0.29270  0.89600  0.12870  Biso   1.000  H
  H54      1.0000 0.70730  0.39600  0.37130  Biso   1.000  H
  H55      1.0000 0.70730  0.10400  0.87130  Biso   1.000  H
  H56      1.0000 0.29270  0.60400  0.62870  Biso   1.000  H
  C85      1.0000 0.24330  0.01160  0.20580  Biso   1.000  C
  C86      1.0000 0.75670  0.51160  0.29420  Biso   1.000  C
  C87      1.0000 0.75670  0.98840  0.79420  Biso   1.000  C
  C88      1.0000 0.24330  0.48840  0.70580  Biso   1.000  C
  H57      1.0000 0.22270  0.05020  0.15260  Biso   1.000  H
  H58      1.0000 0.77730  0.55020  0.34740  Biso   1.000  H
  H59      1.0000 0.77730  0.94980  0.84740  Biso   1.000  H
  H60      1.0000 0.22270  0.44980  0.65260  Biso   1.000  H
  C89      1.0000 0.23320  0.04300  0.30110  Biso   1.000  C
  C90      1.0000 0.76680  0.54300  0.19890  Biso   1.000  C
  C91      1.0000 0.76680  0.95700  0.69890  Biso   1.000  C
  C92      1.0000 0.23320  0.45700  0.80110  Biso   1.000  C
  C93      1.0000 0.26560  0.98930  0.38040  Biso   1.000  C
  C94      1.0000 0.73440  0.48930  0.11960  Biso   1.000  C
  C95      1.0000 0.73440  0.01070  0.61960  Biso   1.000  C
  C96      1.0000 0.26560  0.51070  0.88040  Biso   1.000  C
  H61      1.0000 0.25940  0.01490  0.44420  Biso   1.000  H
  H62      1.0000 0.74060  0.51490  0.05580  Biso   1.000  H
  H63      1.0000 0.74060  0.98510  0.55580  Biso   1.000  H
  H64      1.0000 0.25940  0.48510  0.94420  Biso   1.000  H
  C97      1.0000 0.98440  0.16290  0.99000  Biso   1.000  C
  C98      1.0000 0.01560  0.66290  0.51000  Biso   1.000  C
  C99      1.0000 0.01560  0.83710  0.01000  Biso   1.000  C
  C100     1.0000 0.98440  0.33710  0.49000  Biso   1.000  C
  H65      1.0000 0.01000  0.09830  0.98450  Biso   1.000  H
  H66      1.0000 0.99000  0.59830  0.51550  Biso   1.000  H
  H67      1.0000 0.99000  0.90170  0.01550  Biso   1.000  H
  H68      1.0000 0.01000  0.40170  0.48450  Biso   1.000  H
  C101     1.0000 0.90330  0.16560  0.97960  Biso   1.000  C
  C102     1.0000 0.09670  0.66560  0.52040  Biso   1.000  C
  C103     1.0000 0.09670  0.83440  0.02040  Biso   1.000  C
  C104     1.0000 0.90330  0.33440  0.47960  Biso   1.000  C
  H69      1.0000 0.87470  0.10390  0.96870  Biso   1.000  H
  H70      1.0000 0.12530  0.60390  0.53130  Biso   1.000  H
  H71      1.0000 0.12530  0.89610  0.03130  Biso   1.000  H
  H72      1.0000 0.87470  0.39610  0.46870  Biso   1.000  H
  C105     1.0000 0.86570  0.26310  0.98590  Biso   1.000  C
  C106     1.0000 0.13430  0.76310  0.51410  Biso   1.000  C
  C107     1.0000 0.13430  0.73690  0.01410  Biso   1.000  C
  C108     1.0000 0.86570  0.23690  0.48590  Biso   1.000  C
  H73      1.0000 0.81130  0.26890  0.97930  Biso   1.000  H
  H74      1.0000 0.18870  0.76890  0.52070  Biso   1.000  H
  H75      1.0000 0.18870  0.73110  0.02070  Biso   1.000  H
  H76      1.0000 0.81130  0.23110  0.47930  Biso   1.000  H
  C109     1.0000 0.91160  0.34850  0.00210  Biso   1.000  C
  C110     1.0000 0.08840  0.84850  0.49790  Biso   1.000  C
  C111     1.0000 0.08840  0.65150  0.99790  Biso   1.000  C
  C112     1.0000 0.91160  0.15150  0.50210  Biso   1.000  C
  C113     1.0000 0.99130  0.34260  0.01500  Biso   1.000  C
  C114     1.0000 0.00870  0.84260  0.48500  Biso   1.000  C
  C115     1.0000 0.00870  0.65740  0.98500  Biso   1.000  C
  C116     1.0000 0.99130  0.15740  0.51500  Biso   1.000  C
  H77      1.0000 0.02030  0.40330  0.02900  Biso   1.000  H
  H78      1.0000 0.97970  0.90330  0.47100  Biso   1.000  H
  H79      1.0000 0.97970  0.59670  0.97100  Biso   1.000  H
  H80      1.0000 0.02030  0.09670  0.52900  Biso   1.000  H
  F1       1.0000 0.40920  0.14750  0.30670  Biso   1.000  F
  F2       1.0000 0.59080  0.64750  0.19330  Biso   1.000  F
  F3       1.0000 0.59080  0.85250  0.69330  Biso   1.000  F
  F4       1.0000 0.40920  0.35250  0.80670  Biso   1.000  F
  F5       1.0000 0.07640  0.85110  0.25520  Biso   1.000  F
  F6       1.0000 0.92360  0.35110  0.24480  Biso   1.000  F
  F7       1.0000 0.92360  0.14890  0.74480  Biso   1.000  F
  F8       1.0000 0.07640  0.64890  0.75520  Biso   1.000  F
  F9       1.0000 0.19140  0.13380  0.32250  Biso   1.000  F
  F10      1.0000 0.80860  0.63380  0.17750  Biso   1.000  F
  F11      1.0000 0.80860  0.86620  0.67750  Biso   1.000  F
  F12      1.0000 0.19140  0.36620  0.82250  Biso   1.000  F
  F13      1.0000 0.59850  0.55990  0.45320  Biso   1.000  F
  F14      1.0000 0.40150  0.05990  0.04680  Biso   1.000  F
  F15      1.0000 0.40150  0.44010  0.54680  Biso   1.000  F
  F16      1.0000 0.59850  0.94010  0.95320  Biso   1.000  F
  F17      1.0000 0.88220  0.44880  0.01210  Biso   1.000  F
  F18      1.0000 0.11780  0.94880  0.48790  Biso   1.000  F
  F19      1.0000 0.11780  0.55120  0.98790  Biso   1.000  F
  F20      1.0000 0.88220  0.05120  0.51210  Biso   1.000  F
