data_image0
_cell_length_a       17.149
_cell_length_b       12.724
_cell_length_c       13.641
_cell_angle_alpha    90
_cell_angle_beta     91.656
_cell_angle_gamma    90

_symmetry_space_group_name_H-M    "P 1"
_symmetry_int_tables_number       1

loop_
  _symmetry_equiv_pos_as_xyz
  'x, y, z'

loop_
  _atom_site_label
  _atom_site_occupancy
  _atom_site_fract_x
  _atom_site_fract_y
  _atom_site_fract_z
  _atom_site_thermal_displace_type
  _atom_site_B_iso_or_equiv
  _atom_site_type_symbol
  Fe1      1.0000 0.25303  0.00168  0.22011  Biso   1.000  Fe
  Fe2      1.0000 0.74697  0.50168  0.27989  Biso   1.000  Fe
  Fe3      1.0000 0.74697  0.99832  0.77989  Biso   1.000  Fe
  Fe4      1.0000 0.25303  0.49832  0.72011  Biso   1.000  Fe
  Cu1      1.0000 0.15678  0.29918  0.01048  Biso   1.000  Cu
  Cu2      1.0000 0.84322  0.79918  0.48952  Biso   1.000  Cu
  Cu3      1.0000 0.84322  0.70082  0.98952  Biso   1.000  Cu
  Cu4      1.0000 0.15678  0.20082  0.51048  Biso   1.000  Cu
  Cu5      1.0000 0.34770  0.73902  0.46777  Biso   1.000  Cu
  Cu6      1.0000 0.65230  0.23902  0.03223  Biso   1.000  Cu
  Cu7      1.0000 0.65230  0.26098  0.53223  Biso   1.000  Cu
  Cu8      1.0000 0.34770  0.76098  0.96777  Biso   1.000  Cu
  N1       1.0000 0.15160  0.91980  0.20930  Biso   1.000  N
  N2       1.0000 0.84840  0.41980  0.29070  Biso   1.000  N
  N3       1.0000 0.84840  0.08020  0.79070  Biso   1.000  N
  N4       1.0000 0.15160  0.58020  0.70930  Biso   1.000  N
  N5       1.0000 0.35600  0.07970  0.23570  Biso   1.000  N
  N6       1.0000 0.64400  0.57970  0.26430  Biso   1.000  N
  N7       1.0000 0.64400  0.92030  0.76430  Biso   1.000  N
  N8       1.0000 0.35600  0.42030  0.73570  Biso   1.000  N
  N9       1.0000 0.21530  0.10360  0.12390  Biso   1.000  N
  N10      1.0000 0.78470  0.60360  0.37610  Biso   1.000  N
  N11      1.0000 0.78470  0.89640  0.87610  Biso   1.000  N
  N12      1.0000 0.21530  0.39640  0.62390  Biso   1.000  N
  N13      1.0000 0.20930  0.08540  0.32820  Biso   1.000  N
  N14      1.0000 0.79070  0.58540  0.17180  Biso   1.000  N
  N15      1.0000 0.79070  0.91460  0.67180  Biso   1.000  N
  N16      1.0000 0.20930  0.41460  0.82820  Biso   1.000  N
  N17      1.0000 0.29120  0.89920  0.31850  Biso   1.000  N
  N18      1.0000 0.70880  0.39920  0.18150  Biso   1.000  N
  N19      1.0000 0.70880  0.10080  0.68150  Biso   1.000  N
  N20      1.0000 0.29120  0.60080  0.81850  Biso   1.000  N
  N21      1.0000 0.29390  0.91950  0.11490  Biso   1.000  N
  N22      1.0000 0.70610  0.41950  0.38510  Biso   1.000  N
  N23      1.0000 0.70610  0.08050  0.88510  Biso   1.000  N
  N24      1.0000 0.29390  0.58050  0.61490  Biso   1.000  N
  N25      1.0000 0.03730  0.27920  0.04250  Biso   1.000  N
  N26      1.0000 0.96270  0.77920  0.45750  Biso   1.000  N
  N27      1.0000 0.96270  0.72080  0.95750  Biso   1.000  N
  N28      1.0000 0.03730  0.22080  0.54250  Biso   1.000  N
  N29      1.0000 0.19610  0.40020  0.13460  Biso   1.000  N
  N30      1.0000 0.80390  0.90020  0.36540  Biso   1.000  N
  N31      1.0000 0.80390  0.59980  0.86540  Biso   1.000  N
  N32      1.0000 0.19610  0.09980  0.63460  Biso   1.000  N
  N33      1.0000 0.46910  0.74690  0.49280  Biso   1.000  N
  N34      1.0000 0.53090  0.24690  0.00720  Biso   1.000  N
  N35      1.0000 0.53090  0.25310  0.50720  Biso   1.000  N
  N36      1.0000 0.46910  0.75310  0.99280  Biso   1.000  N
  C1       1.0000 0.08200  0.96800  0.20960  Biso   1.000  C
  C2       1.0000 0.91800  0.46800  0.29040  Biso   1.000  C
  C3       1.0000 0.91800  0.03200  0.79040  Biso   1.000  C
  C4       1.0000 0.08200  0.53200  0.70960  Biso   1.000  C
  H1       1.0000 0.08080  0.04090  0.21380  Biso   1.000  H
  H2       1.0000 0.91920  0.54090  0.28620  Biso   1.000  H
  H3       1.0000 0.91920  0.95910  0.78620  Biso   1.000  H
  H4       1.0000 0.08080  0.45910  0.71380  Biso   1.000  H
  C5       1.0000 0.01210  0.91400  0.20410  Biso   1.000  C
  C6       1.0000 0.98790  0.41400  0.29590  Biso   1.000  C
  C7       1.0000 0.98790  0.08600  0.79590  Biso   1.000  C
  C8       1.0000 0.01210  0.58600  0.70410  Biso   1.000  C
  H5       1.0000 0.96510  0.95050  0.20430  Biso   1.000  H
  H6       1.0000 0.03490  0.45050  0.29570  Biso   1.000  H
  H7       1.0000 0.03490  0.04950  0.79570  Biso   1.000  H
  H8       1.0000 0.96510  0.54950  0.70430  Biso   1.000  H
  C9       1.0000 0.01230  0.80560  0.19820  Biso   1.000  C
  C10      1.0000 0.98770  0.30560  0.30180  Biso   1.000  C
  C11      1.0000 0.98770  0.19440  0.80180  Biso   1.000  C
  C12      1.0000 0.01230  0.69440  0.69820  Biso   1.000  C
  H9       1.0000 0.96620  0.76710  0.19370  Biso   1.000  H
  H10      1.0000 0.03380  0.26710  0.30630  Biso   1.000  H
  H11      1.0000 0.03380  0.23290  0.80630  Biso   1.000  H
  H12      1.0000 0.96620  0.73290  0.69370  Biso   1.000  H
  C13      1.0000 0.08370  0.75780  0.19940  Biso   1.000  C
  C14      1.0000 0.91630  0.25780  0.30060  Biso   1.000  C
  C15      1.0000 0.91630  0.24220  0.80060  Biso   1.000  C
  C16      1.0000 0.08370  0.74220  0.69940  Biso   1.000  C
  C17      1.0000 0.15200  0.81480  0.20370  Biso   1.000  C
  C18      1.0000 0.84800  0.31480  0.29630  Biso   1.000  C
  C19      1.0000 0.84800  0.18520  0.79630  Biso   1.000  C
  C20      1.0000 0.15200  0.68520  0.70370  Biso   1.000  C
  H13      1.0000 0.19950  0.77950  0.20270  Biso   1.000  H
  H14      1.0000 0.80050  0.27950  0.29730  Biso   1.000  H
  H15      1.0000 0.80050  0.22050  0.79730  Biso   1.000  H
  H16      1.0000 0.19950  0.72050  0.70270  Biso   1.000  H
  C21      1.0000 0.42500  0.02950  0.24100  Biso   1.000  C
  C22      1.0000 0.57500  0.52950  0.25900  Biso   1.000  C
  C23      1.0000 0.57500  0.97050  0.75900  Biso   1.000  C
  C24      1.0000 0.42500  0.47050  0.74100  Biso   1.000  C
  H17      1.0000 0.42490  0.95650  0.23830  Biso   1.000  H
  H18      1.0000 0.57510  0.45650  0.26170  Biso   1.000  H
  H19      1.0000 0.57510  0.04350  0.76170  Biso   1.000  H
  H20      1.0000 0.42490  0.54350  0.73830  Biso   1.000  H
  C25      1.0000 0.49470  0.07930  0.25020  Biso   1.000  C
  C26      1.0000 0.50530  0.57930  0.24980  Biso   1.000  C
  C27      1.0000 0.50530  0.92070  0.74980  Biso   1.000  C
  C28      1.0000 0.49470  0.42070  0.75020  Biso   1.000  C
  H21      1.0000 0.54040  0.04000  0.25410  Biso   1.000  H
  H22      1.0000 0.45960  0.54000  0.24590  Biso   1.000  H
  H23      1.0000 0.45960  0.96000  0.74590  Biso   1.000  H
  H24      1.0000 0.54040  0.46000  0.75410  Biso   1.000  H
  C29      1.0000 0.49860  0.18820  0.25390  Biso   1.000  C
  C30      1.0000 0.50140  0.68820  0.24610  Biso   1.000  C
  C31      1.0000 0.50140  0.81180  0.74610  Biso   1.000  C
  C32      1.0000 0.49860  0.31180  0.75390  Biso   1.000  C
  H25      1.0000 0.54550  0.22440  0.26040  Biso   1.000  H
  H26      1.0000 0.45450  0.72440  0.23960  Biso   1.000  H
  H27      1.0000 0.45450  0.77560  0.73960  Biso   1.000  H
  H28      1.0000 0.54550  0.27560  0.76040  Biso   1.000  H
  C33      1.0000 0.42790  0.23790  0.24730  Biso   1.000  C
  C34      1.0000 0.57210  0.73790  0.25270  Biso   1.000  C
  C35      1.0000 0.57210  0.76210  0.75270  Biso   1.000  C
  C36      1.0000 0.42790  0.26210  0.74730  Biso   1.000  C
  C37      1.0000 0.35860  0.18510  0.23890  Biso   1.000  C
  C38      1.0000 0.64140  0.68510  0.26110  Biso   1.000  C
  C39      1.0000 0.64140  0.81490  0.76110  Biso   1.000  C
  C40      1.0000 0.35860  0.31490  0.73890  Biso   1.000  C
  H29      1.0000 0.31230  0.22300  0.23530  Biso   1.000  H
  H30      1.0000 0.68770  0.72300  0.26470  Biso   1.000  H
  H31      1.0000 0.68770  0.77700  0.76470  Biso   1.000  H
  H32      1.0000 0.31230  0.27700  0.73530  Biso   1.000  H
  C41      1.0000 0.19350  0.16660  0.06930  Biso   1.000  C
  C42      1.0000 0.80650  0.66660  0.43070  Biso   1.000  C
  C43      1.0000 0.80650  0.83340  0.93070  Biso   1.000  C
  C44      1.0000 0.19350  0.33340  0.56930  Biso   1.000  C
  C45      1.0000 0.18590  0.13180  0.39420  Biso   1.000  C
  C46      1.0000 0.81410  0.63180  0.10580  Biso   1.000  C
  C47      1.0000 0.81410  0.86820  0.60580  Biso   1.000  C
  C48      1.0000 0.18590  0.36820  0.89420  Biso   1.000  C
  C49      1.0000 0.31270  0.83840  0.37510  Biso   1.000  C
  C50      1.0000 0.68730  0.33840  0.12490  Biso   1.000  C
  C51      1.0000 0.68730  0.16160  0.62490  Biso   1.000  C
  C52      1.0000 0.31270  0.66160  0.87510  Biso   1.000  C
  C53      1.0000 0.31610  0.86890  0.05170  Biso   1.000  C
  C54      1.0000 0.68390  0.36890  0.44830  Biso   1.000  C
  C55      1.0000 0.68390  0.13110  0.94830  Biso   1.000  C
  C56      1.0000 0.31610  0.63110  0.55170  Biso   1.000  C
  C57      1.0000 0.98730  0.35920  0.04900  Biso   1.000  C
  C58      1.0000 0.01270  0.85920  0.45100  Biso   1.000  C
  C59      1.0000 0.01270  0.64080  0.95100  Biso   1.000  C
  C60      1.0000 0.98730  0.14080  0.54900  Biso   1.000  C
  H33      1.0000 0.00720  0.42730  0.05020  Biso   1.000  H
  H34      1.0000 0.99280  0.92730  0.44980  Biso   1.000  H
  H35      1.0000 0.99280  0.57270  0.94980  Biso   1.000  H
  H36      1.0000 0.00720  0.07270  0.55020  Biso   1.000  H
  C61      1.0000 0.90690  0.34580  0.05410  Biso   1.000  C
  C62      1.0000 0.09310  0.84580  0.44590  Biso   1.000  C
  C63      1.0000 0.09310  0.65420  0.94590  Biso   1.000  C
  C64      1.0000 0.90690  0.15420  0.55410  Biso   1.000  C
  H37      1.0000 0.87410  0.40370  0.05840  Biso   1.000  H
  H38      1.0000 0.12590  0.90370  0.44160  Biso   1.000  H
  H39      1.0000 0.12590  0.59630  0.94160  Biso   1.000  H
  H40      1.0000 0.87410  0.09630  0.55840  Biso   1.000  H
  C65      1.0000 0.87640  0.24430  0.05270  Biso   1.000  C
  C66      1.0000 0.12360  0.74430  0.44730  Biso   1.000  C
  C67      1.0000 0.12360  0.75570  0.94730  Biso   1.000  C
  C68      1.0000 0.87640  0.25570  0.55270  Biso   1.000  C
  H41      1.0000 0.82300  0.23190  0.05550  Biso   1.000  H
  H42      1.0000 0.17700  0.73190  0.44450  Biso   1.000  H
  H43      1.0000 0.17700  0.76810  0.94450  Biso   1.000  H
  H44      1.0000 0.82300  0.26810  0.55550  Biso   1.000  H
  C69      1.0000 0.92840  0.16480  0.04710  Biso   1.000  C
  C70      1.0000 0.07160  0.66480  0.45290  Biso   1.000  C
  C71      1.0000 0.07160  0.83520  0.95290  Biso   1.000  C
  C72      1.0000 0.92840  0.33520  0.54710  Biso   1.000  C
  C73      1.0000 0.00650  0.18180  0.04290  Biso   1.000  C
  C74      1.0000 0.99350  0.68180  0.45710  Biso   1.000  C
  C75      1.0000 0.99350  0.81820  0.95710  Biso   1.000  C
  C76      1.0000 0.00650  0.31820  0.54290  Biso   1.000  C
  H45      1.0000 0.03970  0.12430  0.04020  Biso   1.000  H
  H46      1.0000 0.96030  0.62430  0.45980  Biso   1.000  H
  H47      1.0000 0.96030  0.87570  0.95980  Biso   1.000  H
  H48      1.0000 0.03970  0.37570  0.54020  Biso   1.000  H
  C77      1.0000 0.18740  0.36820  0.22740  Biso   1.000  C
  C78      1.0000 0.81260  0.86820  0.27260  Biso   1.000  C
  C79      1.0000 0.81260  0.63180  0.77260  Biso   1.000  C
  C80      1.0000 0.18740  0.13180  0.72740  Biso   1.000  C
  H49      1.0000 0.16020  0.30620  0.23810  Biso   1.000  H
  H50      1.0000 0.83980  0.80620  0.26190  Biso   1.000  H
  H51      1.0000 0.83980  0.69380  0.76190  Biso   1.000  H
  H52      1.0000 0.16020  0.19380  0.73810  Biso   1.000  H
  C81      1.0000 0.21670  0.42260  0.30790  Biso   1.000  C
  C82      1.0000 0.78330  0.92260  0.19210  Biso   1.000  C
  C83      1.0000 0.78330  0.57740  0.69210  Biso   1.000  C
  C84      1.0000 0.21670  0.07740  0.80790  Biso   1.000  C
  H53      1.0000 0.20990  0.39740  0.37110  Biso   1.000  H
  H54      1.0000 0.79010  0.89740  0.12890  Biso   1.000  H
  H55      1.0000 0.79010  0.60260  0.62890  Biso   1.000  H
  H56      1.0000 0.20990  0.10260  0.87110  Biso   1.000  H
  C85      1.0000 0.25640  0.51490  0.29250  Biso   1.000  C
  C86      1.0000 0.74360  0.01490  0.20750  Biso   1.000  C
  C87      1.0000 0.74360  0.48510  0.70750  Biso   1.000  C
  C88      1.0000 0.25640  0.98510  0.79250  Biso   1.000  C
  H57      1.0000 0.27540  0.55500  0.34490  Biso   1.000  H
  H58      1.0000 0.72460  0.05500  0.15510  Biso   1.000  H
  H59      1.0000 0.72460  0.44500  0.65510  Biso   1.000  H
  H60      1.0000 0.27540  0.94500  0.84490  Biso   1.000  H
  C89      1.0000 0.26680  0.54540  0.19910  Biso   1.000  C
  C90      1.0000 0.73320  0.04540  0.30090  Biso   1.000  C
  C91      1.0000 0.73320  0.45460  0.80090  Biso   1.000  C
  C92      1.0000 0.26680  0.95460  0.69910  Biso   1.000  C
  C93      1.0000 0.23560  0.48930  0.12070  Biso   1.000  C
  C94      1.0000 0.76440  0.98930  0.37930  Biso   1.000  C
  C95      1.0000 0.76440  0.51070  0.87930  Biso   1.000  C
  C96      1.0000 0.23560  0.01070  0.62070  Biso   1.000  C
  H61      1.0000 0.24220  0.51380  0.05730  Biso   1.000  H
  H62      1.0000 0.75780  0.01380  0.44270  Biso   1.000  H
  H63      1.0000 0.75780  0.48620  0.94270  Biso   1.000  H
  H64      1.0000 0.24220  0.98620  0.55730  Biso   1.000  H
  C97      1.0000 0.51220  0.66220  0.50950  Biso   1.000  C
  C98      1.0000 0.48780  0.16220  0.99050  Biso   1.000  C
  C99      1.0000 0.48780  0.33780  0.49050  Biso   1.000  C
  C100     1.0000 0.51220  0.83780  0.00950  Biso   1.000  C
  H65      1.0000 0.48690  0.59810  0.51610  Biso   1.000  H
  H66      1.0000 0.51310  0.09810  0.98390  Biso   1.000  H
  H67      1.0000 0.51310  0.40190  0.48390  Biso   1.000  H
  H68      1.0000 0.48690  0.90190  0.01610  Biso   1.000  H
  C101     1.0000 0.59260  0.66360  0.51780  Biso   1.000  C
  C102     1.0000 0.40740  0.16360  0.98220  Biso   1.000  C
  C103     1.0000 0.40740  0.33640  0.48220  Biso   1.000  C
  C104     1.0000 0.59260  0.83640  0.01780  Biso   1.000  C
  H69      1.0000 0.62110  0.60230  0.52900  Biso   1.000  H
  H70      1.0000 0.37890  0.10230  0.97100  Biso   1.000  H
  H71      1.0000 0.37890  0.39770  0.47100  Biso   1.000  H
  H72      1.0000 0.62110  0.89770  0.02900  Biso   1.000  H
  C105     1.0000 0.62890  0.75960  0.50870  Biso   1.000  C
  C106     1.0000 0.37110  0.25960  0.99130  Biso   1.000  C
  C107     1.0000 0.37110  0.24040  0.49130  Biso   1.000  C
  C108     1.0000 0.62890  0.74040  0.00870  Biso   1.000  C
  H73      1.0000 0.68300  0.76510  0.51410  Biso   1.000  H
  H74      1.0000 0.31700  0.26510  0.98590  Biso   1.000  H
  H75      1.0000 0.31700  0.23490  0.48590  Biso   1.000  H
  H76      1.0000 0.68300  0.73490  0.01410  Biso   1.000  H
  C109     1.0000 0.58450  0.84500  0.49200  Biso   1.000  C
  C110     1.0000 0.41550  0.34500  0.00800  Biso   1.000  C
  C111     1.0000 0.41550  0.15500  0.50800  Biso   1.000  C
  C112     1.0000 0.58450  0.65500  0.99200  Biso   1.000  C
  C113     1.0000 0.50660  0.83790  0.48230  Biso   1.000  C
  C114     1.0000 0.49340  0.33790  0.01770  Biso   1.000  C
  C115     1.0000 0.49340  0.16210  0.51770  Biso   1.000  C
  C116     1.0000 0.50660  0.66210  0.98230  Biso   1.000  C
  H77      1.0000 0.47790  0.89830  0.46790  Biso   1.000  H
  H78      1.0000 0.52210  0.39830  0.03210  Biso   1.000  H
  H79      1.0000 0.52210  0.10170  0.53210  Biso   1.000  H
  H80      1.0000 0.47790  0.60170  0.96790  Biso   1.000  H
  F1       1.0000 0.08810  0.65180  0.19610  Biso   1.000  F
  F2       1.0000 0.91190  0.15180  0.30390  Biso   1.000  F
  F3       1.0000 0.91190  0.34820  0.80390  Biso   1.000  F
  F4       1.0000 0.08810  0.84820  0.69610  Biso   1.000  F
  F5       1.0000 0.42530  0.34480  0.24880  Biso   1.000  F
  F6       1.0000 0.57470  0.84480  0.25120  Biso   1.000  F
  F7       1.0000 0.57470  0.65520  0.75120  Biso   1.000  F
  F8       1.0000 0.42530  0.15520  0.74880  Biso   1.000  F
  F9       1.0000 0.90180  0.06470  0.04570  Biso   1.000  F
  F10      1.0000 0.09820  0.56470  0.45430  Biso   1.000  F
  F11      1.0000 0.09820  0.93530  0.95430  Biso   1.000  F
  F12      1.0000 0.90180  0.43530  0.54570  Biso   1.000  F
  F13      1.0000 0.30810  0.63330  0.17900  Biso   1.000  F
  F14      1.0000 0.69190  0.13330  0.32100  Biso   1.000  F
  F15      1.0000 0.69190  0.36670  0.82100  Biso   1.000  F
  F16      1.0000 0.30810  0.86670  0.67900  Biso   1.000  F
  F17      1.0000 0.61350  0.94550  0.48070  Biso   1.000  F
  F18      1.0000 0.38650  0.44550  0.01930  Biso   1.000  F
  F19      1.0000 0.38650  0.05450  0.51930  Biso   1.000  F
  F20      1.0000 0.61350  0.55450  0.98070  Biso   1.000  F
