data_image0
_cell_length_a       17.733
_cell_length_b       9.068
_cell_length_c       24.049
_cell_angle_alpha    90
_cell_angle_beta     126.138
_cell_angle_gamma    90

_symmetry_space_group_name_H-M    "P 1"
_symmetry_int_tables_number       1

loop_
  _symmetry_equiv_pos_as_xyz
  'x, y, z'

loop_
  _atom_site_label
  _atom_site_occupancy
  _atom_site_fract_x
  _atom_site_fract_y
  _atom_site_fract_z
  _atom_site_thermal_displace_type
  _atom_site_B_iso_or_equiv
  _atom_site_type_symbol
  Fe1      1.0000 0.50000  0.50000  0.50000  Biso   1.000  Fe
  Fe2      1.0000 0.50000  0.00000  0.00000  Biso   1.000  Fe
  Fe3      1.0000 0.00000  0.50000  0.00000  Biso   1.000  Fe
  Fe4      1.0000 0.00000  0.00000  0.50000  Biso   1.000  Fe
  Cu1      1.0000 0.20584  0.38781  0.25971  Biso   1.000  Cu
  Cu2      1.0000 0.79416  0.88781  0.24029  Biso   1.000  Cu
  Cu3      1.0000 0.79416  0.61219  0.74029  Biso   1.000  Cu
  Cu4      1.0000 0.20584  0.11219  0.75971  Biso   1.000  Cu
  Cu5      1.0000 0.70353  0.25060  0.44130  Biso   1.000  Cu
  Cu6      1.0000 0.29647  0.75060  0.05870  Biso   1.000  Cu
  Cu7      1.0000 0.29647  0.74940  0.55870  Biso   1.000  Cu
  Cu8      1.0000 0.70353  0.24940  0.94130  Biso   1.000  Cu
  Cl1      1.0000 0.31470  0.01290  0.33400  Biso   1.000  Cl
  Cl2      1.0000 0.68530  0.51290  0.16600  Biso   1.000  Cl
  Cl3      1.0000 0.68530  0.98710  0.66600  Biso   1.000  Cl
  Cl4      1.0000 0.31470  0.48710  0.83400  Biso   1.000  Cl
  Cl5      1.0000 0.12190  0.02980  0.15860  Biso   1.000  Cl
  Cl6      1.0000 0.87810  0.52980  0.34140  Biso   1.000  Cl
  Cl7      1.0000 0.87810  0.97020  0.84140  Biso   1.000  Cl
  Cl8      1.0000 0.12190  0.47020  0.65860  Biso   1.000  Cl
  Cl9      1.0000 0.83860  0.20040  0.14560  Biso   1.000  Cl
  Cl10     1.0000 0.16140  0.70040  0.35440  Biso   1.000  Cl
  Cl11     1.0000 0.16140  0.79960  0.85440  Biso   1.000  Cl
  Cl12     1.0000 0.83860  0.29960  0.64560  Biso   1.000  Cl
  Cl13     1.0000 0.34840  0.23460  0.18550  Biso   1.000  Cl
  Cl14     1.0000 0.65160  0.73460  0.31450  Biso   1.000  Cl
  Cl15     1.0000 0.65160  0.76540  0.81450  Biso   1.000  Cl
  Cl16     1.0000 0.34840  0.26540  0.68550  Biso   1.000  Cl
  N1       1.0000 0.38380  0.43640  0.40120  Biso   1.000  N
  N2       1.0000 0.61620  0.93640  0.09880  Biso   1.000  N
  N3       1.0000 0.61620  0.56360  0.59880  Biso   1.000  N
  N4       1.0000 0.38380  0.06360  0.90120  Biso   1.000  N
  N5       1.0000 0.59090  0.42020  0.47590  Biso   1.000  N
  N6       1.0000 0.40910  0.92020  0.02410  Biso   1.000  N
  N7       1.0000 0.40910  0.57980  0.52410  Biso   1.000  N
  N8       1.0000 0.59090  0.07980  0.97590  Biso   1.000  N
  N9       1.0000 0.97000  0.72080  0.02200  Biso   1.000  N
  N10      1.0000 0.03000  0.22080  0.47800  Biso   1.000  N
  N11      1.0000 0.03000  0.27920  0.97800  Biso   1.000  N
  N12      1.0000 0.97000  0.77920  0.52200  Biso   1.000  N
  N13      1.0000 0.09250  0.45270  0.10770  Biso   1.000  N
  N14      1.0000 0.90750  0.95270  0.39230  Biso   1.000  N
  N15      1.0000 0.90750  0.54730  0.89230  Biso   1.000  N
  N16      1.0000 0.09250  0.04730  0.60770  Biso   1.000  N
  N17      1.0000 0.88550  0.09280  0.49420  Biso   1.000  N
  N18      1.0000 0.11450  0.59280  0.00580  Biso   1.000  N
  N19      1.0000 0.11450  0.90720  0.50580  Biso   1.000  N
  N20      1.0000 0.88550  0.40720  0.99420  Biso   1.000  N
  N21      1.0000 0.10560  0.28860  0.27080  Biso   1.000  N
  N22      1.0000 0.89440  0.78860  0.22920  Biso   1.000  N
  N23      1.0000 0.89440  0.71140  0.72920  Biso   1.000  N
  N24      1.0000 0.10560  0.21140  0.77080  Biso   1.000  N
  N25      1.0000 0.61540  0.21520  0.33310  Biso   1.000  N
  N26      1.0000 0.38460  0.71520  0.16690  Biso   1.000  N
  N27      1.0000 0.38460  0.78480  0.66690  Biso   1.000  N
  N28      1.0000 0.61540  0.28480  0.83310  Biso   1.000  N
  N29      1.0000 0.49960  0.71790  0.46120  Biso   1.000  N
  N30      1.0000 0.50040  0.21790  0.03880  Biso   1.000  N
  N31      1.0000 0.50040  0.28210  0.53880  Biso   1.000  N
  N32      1.0000 0.49960  0.78210  0.96120  Biso   1.000  N
  C1       1.0000 0.58350  0.78670  0.48450  Biso   1.000  C
  C2       1.0000 0.41650  0.28670  0.01550  Biso   1.000  C
  C3       1.0000 0.41650  0.21330  0.51550  Biso   1.000  C
  C4       1.0000 0.58350  0.71330  0.98450  Biso   1.000  C
  H1       1.0000 0.63980  0.73850  0.51540  Biso   1.000  H
  H2       1.0000 0.36020  0.23850  0.98460  Biso   1.000  H
  H3       1.0000 0.36020  0.26150  0.48460  Biso   1.000  H
  H4       1.0000 0.63980  0.76150  0.01540  Biso   1.000  H
  C5       1.0000 0.58330  0.92750  0.46160  Biso   1.000  C
  C6       1.0000 0.41670  0.42750  0.03840  Biso   1.000  C
  C7       1.0000 0.41670  0.07250  0.53840  Biso   1.000  C
  C8       1.0000 0.58330  0.57250  0.96160  Biso   1.000  C
  H5       1.0000 0.63940  0.97350  0.47720  Biso   1.000  H
  H6       1.0000 0.36060  0.47350  0.02280  Biso   1.000  H
  H7       1.0000 0.36060  0.02650  0.52280  Biso   1.000  H
  H8       1.0000 0.63940  0.52650  0.97720  Biso   1.000  H
  C9       1.0000 0.49910  0.99950  0.41530  Biso   1.000  C
  C10      1.0000 0.50090  0.49950  0.08470  Biso   1.000  C
  C11      1.0000 0.50090  0.00050  0.58470  Biso   1.000  C
  C12      1.0000 0.49910  0.50050  0.91530  Biso   1.000  C
  H9       1.0000 0.49900  0.09370  0.40000  Biso   1.000  H
  H10      1.0000 0.50100  0.59370  0.10000  Biso   1.000  H
  H11      1.0000 0.50100  0.90630  0.60000  Biso   1.000  H
  H12      1.0000 0.49900  0.40630  0.90000  Biso   1.000  H
  C13      1.0000 0.41530  0.93070  0.39200  Biso   1.000  C
  C14      1.0000 0.58470  0.43070  0.10800  Biso   1.000  C
  C15      1.0000 0.58470  0.06930  0.60800  Biso   1.000  C
  C16      1.0000 0.41530  0.56930  0.89200  Biso   1.000  C
  C17      1.0000 0.41550  0.78990  0.41490  Biso   1.000  C
  C18      1.0000 0.58450  0.28990  0.08510  Biso   1.000  C
  C19      1.0000 0.58450  0.21010  0.58510  Biso   1.000  C
  C20      1.0000 0.41550  0.71010  0.91490  Biso   1.000  C
  H13      1.0000 0.35940  0.74390  0.39930  Biso   1.000  H
  H14      1.0000 0.64060  0.24390  0.10070  Biso   1.000  H
  H15      1.0000 0.64060  0.25610  0.60070  Biso   1.000  H
  H16      1.0000 0.35940  0.75610  0.89930  Biso   1.000  H
  C21      1.0000 0.31740  0.41430  0.34720  Biso   1.000  C
  C22      1.0000 0.68260  0.91430  0.15280  Biso   1.000  C
  C23      1.0000 0.68260  0.58570  0.65280  Biso   1.000  C
  C24      1.0000 0.31740  0.08570  0.84720  Biso   1.000  C
  C25      1.0000 0.63630  0.36040  0.46300  Biso   1.000  C
  C26      1.0000 0.36370  0.86040  0.03700  Biso   1.000  C
  C27      1.0000 0.36370  0.63960  0.53700  Biso   1.000  C
  C28      1.0000 0.63630  0.13960  0.96300  Biso   1.000  C
  C29      1.0000 0.88560  0.77670  0.98740  Biso   1.000  C
  C30      1.0000 0.11440  0.27670  0.51260  Biso   1.000  C
  C31      1.0000 0.11440  0.22330  0.01260  Biso   1.000  C
  C32      1.0000 0.88560  0.72330  0.48740  Biso   1.000  C
  H17      1.0000 0.83610  0.71960  0.95310  Biso   1.000  H
  H18      1.0000 0.16390  0.21960  0.54690  Biso   1.000  H
  H19      1.0000 0.16390  0.28040  0.04690  Biso   1.000  H
  H20      1.0000 0.83610  0.78040  0.45310  Biso   1.000  H
  C33      1.0000 0.86650  0.91350  0.99900  Biso   1.000  C
  C34      1.0000 0.13350  0.41350  0.50100  Biso   1.000  C
  C35      1.0000 0.13350  0.08650  0.00100  Biso   1.000  C
  C36      1.0000 0.86650  0.58650  0.49900  Biso   1.000  C
  H21      1.0000 0.80630  0.95200  0.97200  Biso   1.000  H
  H22      1.0000 0.19370  0.45200  0.52800  Biso   1.000  H
  H23      1.0000 0.19370  0.04800  0.02800  Biso   1.000  H
  H24      1.0000 0.80630  0.54800  0.47200  Biso   1.000  H
  C37      1.0000 0.94200  0.99480  0.05370  Biso   1.000  C
  C38      1.0000 0.05800  0.49480  0.44630  Biso   1.000  C
  C39      1.0000 0.05800  0.00520  0.94630  Biso   1.000  C
  C40      1.0000 0.94200  0.50520  0.55370  Biso   1.000  C
  H25      1.0000 0.93250  0.08870  0.06430  Biso   1.000  H
  H26      1.0000 0.06750  0.58870  0.43570  Biso   1.000  H
  H27      1.0000 0.06750  0.91130  0.93570  Biso   1.000  H
  H28      1.0000 0.93250  0.41130  0.56430  Biso   1.000  H
  C41      1.0000 0.02640  0.93440  0.09010  Biso   1.000  C
  C42      1.0000 0.97360  0.43440  0.40990  Biso   1.000  C
  C43      1.0000 0.97360  0.06560  0.90990  Biso   1.000  C
  C44      1.0000 0.02640  0.56560  0.59010  Biso   1.000  C
  C45      1.0000 0.04040  0.80160  0.07490  Biso   1.000  C
  C46      1.0000 0.95960  0.30160  0.42510  Biso   1.000  C
  C47      1.0000 0.95960  0.19840  0.92510  Biso   1.000  C
  C48      1.0000 0.04040  0.69840  0.57490  Biso   1.000  C
  H29      1.0000 0.10050  0.76240  0.10130  Biso   1.000  H
  H30      1.0000 0.89950  0.26240  0.39870  Biso   1.000  H
  H31      1.0000 0.89950  0.23760  0.89870  Biso   1.000  H
  H32      1.0000 0.10050  0.73760  0.60130  Biso   1.000  H
  C49      1.0000 0.13810  0.42880  0.16320  Biso   1.000  C
  C50      1.0000 0.86190  0.92880  0.33680  Biso   1.000  C
  C51      1.0000 0.86190  0.57120  0.83680  Biso   1.000  C
  C52      1.0000 0.13810  0.07120  0.66320  Biso   1.000  C
  C53      1.0000 0.81750  0.15200  0.47710  Biso   1.000  C
  C54      1.0000 0.18250  0.65200  0.02290  Biso   1.000  C
  C55      1.0000 0.18250  0.84800  0.52290  Biso   1.000  C
  C56      1.0000 0.81750  0.34800  0.97710  Biso   1.000  C
  C57      1.0000 0.13000  0.24120  0.33200  Biso   1.000  C
  C58      1.0000 0.87000  0.74120  0.16800  Biso   1.000  C
  C59      1.0000 0.87000  0.75880  0.66800  Biso   1.000  C
  C60      1.0000 0.13000  0.25880  0.83200  Biso   1.000  C
  H33      1.0000 0.19210  0.24820  0.37000  Biso   1.000  H
  H34      1.0000 0.80790  0.74820  0.13000  Biso   1.000  H
  H35      1.0000 0.80790  0.75180  0.63000  Biso   1.000  H
  H36      1.0000 0.19210  0.25180  0.87000  Biso   1.000  H
  C61      1.0000 0.06550  0.18210  0.34020  Biso   1.000  C
  C62      1.0000 0.93450  0.68210  0.15980  Biso   1.000  C
  C63      1.0000 0.93450  0.81790  0.65980  Biso   1.000  C
  C64      1.0000 0.06550  0.31790  0.84020  Biso   1.000  C
  H37      1.0000 0.08280  0.15080  0.38300  Biso   1.000  H
  H38      1.0000 0.91720  0.65080  0.11700  Biso   1.000  H
  H39      1.0000 0.91720  0.84920  0.61700  Biso   1.000  H
  H40      1.0000 0.08280  0.34920  0.88300  Biso   1.000  H
  C65      1.0000 0.97500  0.17130  0.28290  Biso   1.000  C
  C66      1.0000 0.02500  0.67130  0.21710  Biso   1.000  C
  C67      1.0000 0.02500  0.82870  0.71710  Biso   1.000  C
  C68      1.0000 0.97500  0.32870  0.78290  Biso   1.000  C
  H41      1.0000 0.93010  0.13090  0.28680  Biso   1.000  H
  H42      1.0000 0.06990  0.63090  0.21320  Biso   1.000  H
  H43      1.0000 0.06990  0.86910  0.71320  Biso   1.000  H
  H44      1.0000 0.93010  0.36910  0.78680  Biso   1.000  H
  C69      1.0000 0.95040  0.21710  0.22220  Biso   1.000  C
  C70      1.0000 0.04960  0.71710  0.27780  Biso   1.000  C
  C71      1.0000 0.04960  0.78290  0.77780  Biso   1.000  C
  C72      1.0000 0.95040  0.28290  0.72220  Biso   1.000  C
  C73      1.0000 0.01830  0.27440  0.21690  Biso   1.000  C
  C74      1.0000 0.98170  0.77440  0.28310  Biso   1.000  C
  C75      1.0000 0.98170  0.72560  0.78310  Biso   1.000  C
  C76      1.0000 0.01830  0.22560  0.71690  Biso   1.000  C
  H45      1.0000 0.00160  0.30360  0.17390  Biso   1.000  H
  H46      1.0000 0.99840  0.80360  0.32610  Biso   1.000  H
  H47      1.0000 0.99840  0.69640  0.82610  Biso   1.000  H
  H48      1.0000 0.00160  0.19640  0.67390  Biso   1.000  H
  C77      1.0000 0.64750  0.15290  0.30330  Biso   1.000  C
  C78      1.0000 0.35250  0.65290  0.19670  Biso   1.000  C
  C79      1.0000 0.35250  0.84710  0.69670  Biso   1.000  C
  C80      1.0000 0.64750  0.34710  0.80330  Biso   1.000  C
  H49      1.0000 0.71090  0.13060  0.33000  Biso   1.000  H
  H50      1.0000 0.28910  0.63060  0.17000  Biso   1.000  H
  H51      1.0000 0.28910  0.86940  0.67000  Biso   1.000  H
  H52      1.0000 0.71090  0.36940  0.83000  Biso   1.000  H
  C81      1.0000 0.59670  0.11810  0.23710  Biso   1.000  C
  C82      1.0000 0.40330  0.61810  0.26290  Biso   1.000  C
  C83      1.0000 0.40330  0.88190  0.76290  Biso   1.000  C
  C84      1.0000 0.59670  0.38190  0.73710  Biso   1.000  C
  H53      1.0000 0.62560  0.07800  0.21850  Biso   1.000  H
  H54      1.0000 0.37440  0.57800  0.28150  Biso   1.000  H
  H55      1.0000 0.37440  0.92200  0.78150  Biso   1.000  H
  H56      1.0000 0.62560  0.42200  0.71850  Biso   1.000  H
  C85      1.0000 0.50540  0.13970  0.19730  Biso   1.000  C
  C86      1.0000 0.49460  0.63970  0.30270  Biso   1.000  C
  C87      1.0000 0.49460  0.86030  0.80270  Biso   1.000  C
  C88      1.0000 0.50540  0.36030  0.69730  Biso   1.000  C
  H57      1.0000 0.46910  0.11460  0.15080  Biso   1.000  H
  H58      1.0000 0.53090  0.61460  0.34920  Biso   1.000  H
  H59      1.0000 0.53090  0.88540  0.84920  Biso   1.000  H
  H60      1.0000 0.46910  0.38540  0.65080  Biso   1.000  H
  C89      1.0000 0.46430  0.20290  0.22810  Biso   1.000  C
  C90      1.0000 0.53570  0.70290  0.27190  Biso   1.000  C
  C91      1.0000 0.53570  0.79710  0.77190  Biso   1.000  C
  C92      1.0000 0.46430  0.29710  0.72810  Biso   1.000  C
  C93      1.0000 0.52440  0.23500  0.29730  Biso   1.000  C
  C94      1.0000 0.47560  0.73500  0.20270  Biso   1.000  C
  C95      1.0000 0.47560  0.76500  0.70270  Biso   1.000  C
  C96      1.0000 0.52440  0.26500  0.79730  Biso   1.000  C
  H61      1.0000 0.49990  0.27200  0.31950  Biso   1.000  H
  H62      1.0000 0.50010  0.77200  0.18050  Biso   1.000  H
  H63      1.0000 0.50010  0.72800  0.68050  Biso   1.000  H
  H64      1.0000 0.49990  0.22800  0.81950  Biso   1.000  H
