data_image0
_cell_length_a       8.265
_cell_length_b       8.471
_cell_length_c       10.268
_cell_angle_alpha    90.866
_cell_angle_beta     92.67
_cell_angle_gamma    90.244

_symmetry_space_group_name_H-M    "P 1"
_symmetry_int_tables_number       1

loop_
  _symmetry_equiv_pos_as_xyz
  'x, y, z'

loop_
  _atom_site_label
  _atom_site_occupancy
  _atom_site_fract_x
  _atom_site_fract_y
  _atom_site_fract_z
  _atom_site_thermal_displace_type
  _atom_site_B_iso_or_equiv
  _atom_site_type_symbol
  Fe1      1.0000 0.00000  0.00000  0.00000  Biso   1.000  Fe
  Cu1      1.0000 0.50826  0.29069  0.17730  Biso   1.000  Cu
  Cu2      1.0000 0.49174  0.70931  0.82270  Biso   1.000  Cu
  Br1      1.0000 0.15975  0.20947  0.46679  Biso   1.000  Br
  Br2      1.0000 0.84025  0.79053  0.53321  Biso   1.000  Br
  Br3      1.0000 0.32854  0.77541  0.53594  Biso   1.000  Br
  Br4      1.0000 0.67146  0.22459  0.46406  Biso   1.000  Br
  N1       1.0000 0.00700  0.18340  0.84330  Biso   1.000  N
  N2       1.0000 0.99300  0.81660  0.15670  Biso   1.000  N
  N3       1.0000 0.81600  0.13340  0.09450  Biso   1.000  N
  N4       1.0000 0.18400  0.86660  0.90550  Biso   1.000  N
  N5       1.0000 0.18540  0.13120  0.11170  Biso   1.000  N
  N6       1.0000 0.81460  0.86880  0.88830  Biso   1.000  N
  N7       1.0000 0.49870  0.52620  0.22630  Biso   1.000  N
  N8       1.0000 0.50130  0.47380  0.77370  Biso   1.000  N
  C1       1.0000 0.97700  0.33680  0.86830  Biso   1.000  C
  C2       1.0000 0.02300  0.66320  0.13170  Biso   1.000  C
  H1       1.0000 0.93460  0.36280  0.94810  Biso   1.000  H
  H2       1.0000 0.06540  0.63720  0.05190  Biso   1.000  H
  C3       1.0000 0.00480  0.45850  0.78330  Biso   1.000  C
  C4       1.0000 0.99520  0.54150  0.21670  Biso   1.000  C
  H3       1.0000 0.98790  0.56300  0.80790  Biso   1.000  H
  H4       1.0000 0.01210  0.43700  0.19210  Biso   1.000  H
  C5       1.0000 0.05730  0.42170  0.66370  Biso   1.000  C
  C6       1.0000 0.94270  0.57830  0.33630  Biso   1.000  C
  H5       1.0000 0.07260  0.50030  0.60310  Biso   1.000  H
  H6       1.0000 0.92740  0.49970  0.39690  Biso   1.000  H
  C7       1.0000 0.08760  0.26730  0.63330  Biso   1.000  C
  C8       1.0000 0.91240  0.73270  0.36670  Biso   1.000  C
  C9       1.0000 0.05710  0.14950  0.72620  Biso   1.000  C
  C10      1.0000 0.94290  0.85050  0.27380  Biso   1.000  C
  H7       1.0000 0.07310  0.04420  0.70340  Biso   1.000  H
  H8       1.0000 0.92690  0.95580  0.29660  Biso   1.000  H
  C11      1.0000 0.70730  0.19870  0.12880  Biso   1.000  C
  C12      1.0000 0.29270  0.80130  0.87120  Biso   1.000  C
  C13      1.0000 0.29980  0.19070  0.14750  Biso   1.000  C
  C14      1.0000 0.70020  0.80930  0.85250  Biso   1.000  C
  C15      1.0000 0.54730  0.64120  0.14950  Biso   1.000  C
  C16      1.0000 0.45270  0.35880  0.85050  Biso   1.000  C
  H9       1.0000 0.59530  0.61370  0.07230  Biso   1.000  H
  H10      1.0000 0.40470  0.38630  0.92770  Biso   1.000  H
  C17      1.0000 0.52900  0.79930  0.17990  Biso   1.000  C
  C18      1.0000 0.47100  0.20070  0.82010  Biso   1.000  C
  H11      1.0000 0.56270  0.87590  0.12280  Biso   1.000  H
  H12      1.0000 0.43730  0.12410  0.87720  Biso   1.000  H
  C19      1.0000 0.46400  0.84180  0.29120  Biso   1.000  C
  C20      1.0000 0.53600  0.15820  0.70880  Biso   1.000  C
  H13      1.0000 0.45240  0.94810  0.31260  Biso   1.000  H
  H14      1.0000 0.54760  0.05190  0.68740  Biso   1.000  H
  C21      1.0000 0.41300  0.72580  0.37560  Biso   1.000  C
  C22      1.0000 0.58700  0.27420  0.62440  Biso   1.000  C
  C23      1.0000 0.42790  0.57110  0.33340  Biso   1.000  C
  C24      1.0000 0.57210  0.42890  0.66660  Biso   1.000  C
  H15      1.0000 0.38490  0.49270  0.38420  Biso   1.000  H
  H16      1.0000 0.61510  0.50730  0.61580  Biso   1.000  H
