data_image0
_cell_length_a       17.719
_cell_length_b       8.974
_cell_length_c       23.995
_cell_angle_alpha    90
_cell_angle_beta     125.94
_cell_angle_gamma    90

_symmetry_space_group_name_H-M    "P 1"
_symmetry_int_tables_number       1

loop_
  _symmetry_equiv_pos_as_xyz
  'x, y, z'

loop_
  _atom_site_label
  _atom_site_occupancy
  _atom_site_fract_x
  _atom_site_fract_y
  _atom_site_fract_z
  _atom_site_thermal_displace_type
  _atom_site_B_iso_or_equiv
  _atom_site_type_symbol
  Fe1      1.0000 0.50000  0.50000  0.50000  Biso   1.000  Fe
  Fe2      1.0000 0.50000  0.00000  0.00000  Biso   1.000  Fe
  Fe3      1.0000 0.00000  0.50000  0.00000  Biso   1.000  Fe
  Fe4      1.0000 0.00000  0.00000  0.50000  Biso   1.000  Fe
  Cu1      1.0000 0.20472  0.38906  0.26028  Biso   1.000  Cu
  Cu2      1.0000 0.79528  0.88906  0.23972  Biso   1.000  Cu
  Cu3      1.0000 0.79528  0.61094  0.73972  Biso   1.000  Cu
  Cu4      1.0000 0.20472  0.11094  0.76028  Biso   1.000  Cu
  Cu5      1.0000 0.29878  0.75200  0.56138  Biso   1.000  Cu
  Cu6      1.0000 0.70122  0.25200  0.93862  Biso   1.000  Cu
  Cu7      1.0000 0.70122  0.24800  0.43862  Biso   1.000  Cu
  Cu8      1.0000 0.29878  0.74800  0.06138  Biso   1.000  Cu
  Cl1      1.0000 0.69340  0.98600  0.66520  Biso   1.000  Cl
  Cl2      1.0000 0.30660  0.48600  0.83480  Biso   1.000  Cl
  Cl3      1.0000 0.30660  0.01400  0.33480  Biso   1.000  Cl
  Cl4      1.0000 0.69340  0.51400  0.16520  Biso   1.000  Cl
  Cl5      1.0000 0.87640  0.96470  0.84090  Biso   1.000  Cl
  Cl6      1.0000 0.12360  0.46470  0.65910  Biso   1.000  Cl
  Cl7      1.0000 0.12360  0.03530  0.15910  Biso   1.000  Cl
  Cl8      1.0000 0.87640  0.53530  0.34090  Biso   1.000  Cl
  Cl9      1.0000 0.83580  0.20270  0.14190  Biso   1.000  Cl
  Cl10     1.0000 0.16420  0.70270  0.35810  Biso   1.000  Cl
  Cl11     1.0000 0.16420  0.79730  0.85810  Biso   1.000  Cl
  Cl12     1.0000 0.83580  0.29730  0.64190  Biso   1.000  Cl
  Cl13     1.0000 0.65430  0.76630  0.81620  Biso   1.000  Cl
  Cl14     1.0000 0.34570  0.26630  0.68380  Biso   1.000  Cl
  Cl15     1.0000 0.34570  0.23370  0.18380  Biso   1.000  Cl
  Cl16     1.0000 0.65430  0.73370  0.31620  Biso   1.000  Cl
  N1       1.0000 0.50310  0.27720  0.54070  Biso   1.000  N
  N2       1.0000 0.49690  0.77720  0.95930  Biso   1.000  N
  N3       1.0000 0.49690  0.72280  0.45930  Biso   1.000  N
  N4       1.0000 0.50310  0.22280  0.04070  Biso   1.000  N
  N5       1.0000 0.38410  0.43710  0.40220  Biso   1.000  N
  N6       1.0000 0.61590  0.93710  0.09780  Biso   1.000  N
  N7       1.0000 0.61590  0.56290  0.59780  Biso   1.000  N
  N8       1.0000 0.38410  0.06290  0.90220  Biso   1.000  N
  N9       1.0000 0.41040  0.57840  0.52390  Biso   1.000  N
  N10      1.0000 0.58960  0.07840  0.97610  Biso   1.000  N
  N11      1.0000 0.58960  0.42160  0.47610  Biso   1.000  N
  N12      1.0000 0.41040  0.92160  0.02390  Biso   1.000  N
  N13      1.0000 0.02890  0.27710  0.97730  Biso   1.000  N
  N14      1.0000 0.97110  0.77710  0.52270  Biso   1.000  N
  N15      1.0000 0.97110  0.72290  0.02270  Biso   1.000  N
  N16      1.0000 0.02890  0.22290  0.47730  Biso   1.000  N
  N17      1.0000 0.09210  0.45490  0.10730  Biso   1.000  N
  N18      1.0000 0.90790  0.95490  0.39270  Biso   1.000  N
  N19      1.0000 0.90790  0.54510  0.89270  Biso   1.000  N
  N20      1.0000 0.09210  0.04510  0.60730  Biso   1.000  N
  N21      1.0000 0.11530  0.90930  0.50520  Biso   1.000  N
  N22      1.0000 0.88470  0.40930  0.99480  Biso   1.000  N
  N23      1.0000 0.88470  0.09070  0.49480  Biso   1.000  N
  N24      1.0000 0.11530  0.59070  0.00520  Biso   1.000  N
  N25      1.0000 0.10330  0.29230  0.26940  Biso   1.000  N
  N26      1.0000 0.89670  0.79230  0.23060  Biso   1.000  N
  N27      1.0000 0.89670  0.70770  0.73060  Biso   1.000  N
  N28      1.0000 0.10330  0.20770  0.76940  Biso   1.000  N
  N29      1.0000 0.38680  0.78740  0.66890  Biso   1.000  N
  N30      1.0000 0.61320  0.28740  0.83110  Biso   1.000  N
  N31      1.0000 0.61320  0.21260  0.33110  Biso   1.000  N
  N32      1.0000 0.38680  0.71260  0.16890  Biso   1.000  N
  C1       1.0000 0.42410  0.20730  0.51740  Biso   1.000  C
  C2       1.0000 0.57590  0.70730  0.98260  Biso   1.000  C
  C3       1.0000 0.57590  0.79270  0.48260  Biso   1.000  C
  C4       1.0000 0.42410  0.29270  0.01740  Biso   1.000  C
  H1       1.0000 0.36840  0.25600  0.48560  Biso   1.000  H
  H2       1.0000 0.63160  0.75600  0.01440  Biso   1.000  H
  H3       1.0000 0.63160  0.74400  0.51440  Biso   1.000  H
  H4       1.0000 0.36840  0.24400  0.98560  Biso   1.000  H
  C5       1.0000 0.42020  0.06610  0.53790  Biso   1.000  C
  C6       1.0000 0.57980  0.56610  0.96210  Biso   1.000  C
  C7       1.0000 0.57980  0.93390  0.46210  Biso   1.000  C
  C8       1.0000 0.42020  0.43390  0.03790  Biso   1.000  C
  H5       1.0000 0.36380  0.02200  0.52320  Biso   1.000  H
  H6       1.0000 0.63620  0.52200  0.97680  Biso   1.000  H
  H7       1.0000 0.63620  0.97800  0.47680  Biso   1.000  H
  H8       1.0000 0.36380  0.47800  0.02320  Biso   1.000  H
  C9       1.0000 0.50560  0.99190  0.58220  Biso   1.000  C
  C10      1.0000 0.49440  0.49190  0.91780  Biso   1.000  C
  C11      1.0000 0.49440  0.00810  0.41780  Biso   1.000  C
  C12      1.0000 0.50560  0.50810  0.08220  Biso   1.000  C
  H9       1.0000 0.50680  0.89290  0.59420  Biso   1.000  H
  H10      1.0000 0.49320  0.39290  0.90580  Biso   1.000  H
  H11      1.0000 0.49320  0.10710  0.40580  Biso   1.000  H
  H12      1.0000 0.50680  0.60710  0.09420  Biso   1.000  H
  C13      1.0000 0.58540  0.06540  0.60690  Biso   1.000  C
  C14      1.0000 0.41460  0.56540  0.89310  Biso   1.000  C
  C15      1.0000 0.41460  0.93460  0.39310  Biso   1.000  C
  C16      1.0000 0.58540  0.43460  0.10690  Biso   1.000  C
  C17      1.0000 0.58320  0.20750  0.58430  Biso   1.000  C
  C18      1.0000 0.41680  0.70750  0.91570  Biso   1.000  C
  C19      1.0000 0.41680  0.79250  0.41570  Biso   1.000  C
  C20      1.0000 0.58320  0.29250  0.08430  Biso   1.000  C
  H13      1.0000 0.63890  0.25540  0.60000  Biso   1.000  H
  H14      1.0000 0.36110  0.75540  0.90000  Biso   1.000  H
  H15      1.0000 0.36110  0.74460  0.40000  Biso   1.000  H
  H16      1.0000 0.63890  0.24460  0.10000  Biso   1.000  H
  C21      1.0000 0.31730  0.41480  0.34780  Biso   1.000  C
  C22      1.0000 0.68270  0.91480  0.15220  Biso   1.000  C
  C23      1.0000 0.68270  0.58520  0.65220  Biso   1.000  C
  C24      1.0000 0.31730  0.08520  0.84780  Biso   1.000  C
  C25      1.0000 0.36550  0.63900  0.53820  Biso   1.000  C
  C26      1.0000 0.63450  0.13900  0.96180  Biso   1.000  C
  C27      1.0000 0.63450  0.36100  0.46180  Biso   1.000  C
  C28      1.0000 0.36550  0.86100  0.03820  Biso   1.000  C
  C29      1.0000 0.11340  0.21820  0.01300  Biso   1.000  C
  C30      1.0000 0.88660  0.71820  0.48700  Biso   1.000  C
  C31      1.0000 0.88660  0.78180  0.98700  Biso   1.000  C
  C32      1.0000 0.11340  0.28180  0.51300  Biso   1.000  C
  H17      1.0000 0.16300  0.27270  0.04890  Biso   1.000  H
  H18      1.0000 0.83700  0.77270  0.45110  Biso   1.000  H
  H19      1.0000 0.83700  0.72730  0.95110  Biso   1.000  H
  H20      1.0000 0.16300  0.22730  0.54890  Biso   1.000  H
  C33      1.0000 0.12950  0.08080  0.99880  Biso   1.000  C
  C34      1.0000 0.87050  0.58080  0.50120  Biso   1.000  C
  C35      1.0000 0.87050  0.91920  0.00120  Biso   1.000  C
  C36      1.0000 0.12950  0.41920  0.49880  Biso   1.000  C
  H21      1.0000 0.18980  0.04260  0.02540  Biso   1.000  H
  H22      1.0000 0.81020  0.54260  0.47460  Biso   1.000  H
  H23      1.0000 0.81020  0.95740  0.97460  Biso   1.000  H
  H24      1.0000 0.18980  0.45740  0.52540  Biso   1.000  H
  C37      1.0000 0.05780  0.99550  0.94510  Biso   1.000  C
  C38      1.0000 0.94220  0.49550  0.55490  Biso   1.000  C
  C39      1.0000 0.94220  0.00450  0.05490  Biso   1.000  C
  C40      1.0000 0.05780  0.50450  0.44510  Biso   1.000  C
  H25      1.0000 0.06830  0.90190  0.93420  Biso   1.000  H
  H26      1.0000 0.93170  0.40190  0.56580  Biso   1.000  H
  H27      1.0000 0.93170  0.09810  0.06580  Biso   1.000  H
  H28      1.0000 0.06830  0.59810  0.43420  Biso   1.000  H
  C41      1.0000 0.97120  0.05810  0.90960  Biso   1.000  C
  C42      1.0000 0.02880  0.55810  0.59040  Biso   1.000  C
  C43      1.0000 0.02880  0.94190  0.09040  Biso   1.000  C
  C44      1.0000 0.97120  0.44190  0.40960  Biso   1.000  C
  C45      1.0000 0.95860  0.19650  0.92610  Biso   1.000  C
  C46      1.0000 0.04140  0.69650  0.57390  Biso   1.000  C
  C47      1.0000 0.04140  0.80350  0.07390  Biso   1.000  C
  C48      1.0000 0.95860  0.30350  0.42610  Biso   1.000  C
  H29      1.0000 0.89880  0.23650  0.90070  Biso   1.000  H
  H30      1.0000 0.10120  0.73650  0.59930  Biso   1.000  H
  H31      1.0000 0.10120  0.76350  0.09930  Biso   1.000  H
  H32      1.0000 0.89880  0.26350  0.40070  Biso   1.000  H
  C49      1.0000 0.13810  0.43090  0.16490  Biso   1.000  C
  C50      1.0000 0.86190  0.93090  0.33510  Biso   1.000  C
  C51      1.0000 0.86190  0.56910  0.83510  Biso   1.000  C
  C52      1.0000 0.13810  0.06910  0.66490  Biso   1.000  C
  C53      1.0000 0.18500  0.85290  0.52510  Biso   1.000  C
  C54      1.0000 0.81500  0.35290  0.97490  Biso   1.000  C
  C55      1.0000 0.81500  0.14710  0.47490  Biso   1.000  C
  C56      1.0000 0.18500  0.64710  0.02510  Biso   1.000  C
  C57      1.0000 0.12360  0.24620  0.32930  Biso   1.000  C
  C58      1.0000 0.87640  0.74620  0.17070  Biso   1.000  C
  C59      1.0000 0.87640  0.75380  0.67070  Biso   1.000  C
  C60      1.0000 0.12360  0.25380  0.82930  Biso   1.000  C
  H33      1.0000 0.18530  0.25130  0.36770  Biso   1.000  H
  H34      1.0000 0.81470  0.75130  0.13230  Biso   1.000  H
  H35      1.0000 0.81470  0.74870  0.63230  Biso   1.000  H
  H36      1.0000 0.18530  0.24870  0.86770  Biso   1.000  H
  C61      1.0000 0.05750  0.19060  0.33760  Biso   1.000  C
  C62      1.0000 0.94250  0.69060  0.16240  Biso   1.000  C
  C63      1.0000 0.94250  0.80940  0.66240  Biso   1.000  C
  C64      1.0000 0.05750  0.30940  0.83760  Biso   1.000  C
  H37      1.0000 0.07300  0.16260  0.38040  Biso   1.000  H
  H38      1.0000 0.92700  0.66260  0.11960  Biso   1.000  H
  H39      1.0000 0.92700  0.83740  0.61960  Biso   1.000  H
  H40      1.0000 0.07300  0.33740  0.88040  Biso   1.000  H
  C65      1.0000 0.96660  0.17930  0.27790  Biso   1.000  C
  C66      1.0000 0.03340  0.67930  0.22210  Biso   1.000  C
  C67      1.0000 0.03340  0.82070  0.72210  Biso   1.000  C
  C68      1.0000 0.96660  0.32070  0.77790  Biso   1.000  C
  H41      1.0000 0.91960  0.14220  0.28030  Biso   1.000  H
  H42      1.0000 0.08040  0.64220  0.21970  Biso   1.000  H
  H43      1.0000 0.08040  0.85780  0.71970  Biso   1.000  H
  H44      1.0000 0.91960  0.35780  0.78030  Biso   1.000  H
  C69      1.0000 0.94720  0.22120  0.21790  Biso   1.000  C
  C70      1.0000 0.05280  0.72120  0.28210  Biso   1.000  C
  C71      1.0000 0.05280  0.77880  0.78210  Biso   1.000  C
  C72      1.0000 0.94720  0.27880  0.71790  Biso   1.000  C
  C73      1.0000 0.01490  0.27890  0.21380  Biso   1.000  C
  C74      1.0000 0.98510  0.77890  0.28620  Biso   1.000  C
  C75      1.0000 0.98510  0.72110  0.78620  Biso   1.000  C
  C76      1.0000 0.01490  0.22110  0.71380  Biso   1.000  C
  H45      1.0000 0.99930  0.30990  0.17130  Biso   1.000  H
  H46      1.0000 0.00070  0.80990  0.32870  Biso   1.000  H
  H47      1.0000 0.00070  0.69010  0.82870  Biso   1.000  H
  H48      1.0000 0.99930  0.19010  0.67130  Biso   1.000  H
  C77      1.0000 0.35410  0.84900  0.70080  Biso   1.000  C
  C78      1.0000 0.64590  0.34900  0.79920  Biso   1.000  C
  C79      1.0000 0.64590  0.15100  0.29920  Biso   1.000  C
  C80      1.0000 0.35410  0.65100  0.20080  Biso   1.000  C
  H49      1.0000 0.29050  0.86900  0.67520  Biso   1.000  H
  H50      1.0000 0.70950  0.36900  0.82480  Biso   1.000  H
  H51      1.0000 0.70950  0.13100  0.32480  Biso   1.000  H
  H52      1.0000 0.29050  0.63100  0.17520  Biso   1.000  H
  C81      1.0000 0.40800  0.88520  0.76920  Biso   1.000  C
  C82      1.0000 0.59200  0.38520  0.73080  Biso   1.000  C
  C83      1.0000 0.59200  0.11480  0.23080  Biso   1.000  C
  C84      1.0000 0.40800  0.61480  0.26920  Biso   1.000  C
  H53      1.0000 0.38190  0.92820  0.78950  Biso   1.000  H
  H54      1.0000 0.61810  0.42820  0.71050  Biso   1.000  H
  H55      1.0000 0.61810  0.07180  0.21050  Biso   1.000  H
  H56      1.0000 0.38190  0.57180  0.28950  Biso   1.000  H
  C85      1.0000 0.49990  0.85670  0.80640  Biso   1.000  C
  C86      1.0000 0.50010  0.35670  0.69360  Biso   1.000  C
  C87      1.0000 0.50010  0.14330  0.19360  Biso   1.000  C
  C88      1.0000 0.49990  0.64330  0.30640  Biso   1.000  C
  H57      1.0000 0.53760  0.87450  0.85350  Biso   1.000  H
  H58      1.0000 0.46240  0.37450  0.64650  Biso   1.000  H
  H59      1.0000 0.46240  0.12550  0.14650  Biso   1.000  H
  H60      1.0000 0.53760  0.62550  0.35350  Biso   1.000  H
  C89      1.0000 0.53830  0.80110  0.77440  Biso   1.000  C
  C90      1.0000 0.46170  0.30110  0.72560  Biso   1.000  C
  C91      1.0000 0.46170  0.19890  0.22560  Biso   1.000  C
  C92      1.0000 0.53830  0.69890  0.27440  Biso   1.000  C
  C93      1.0000 0.47770  0.76270  0.70600  Biso   1.000  C
  C94      1.0000 0.52230  0.26270  0.79400  Biso   1.000  C
  C95      1.0000 0.52230  0.23730  0.29400  Biso   1.000  C
  C96      1.0000 0.47770  0.73730  0.20600  Biso   1.000  C
  H61      1.0000 0.50190  0.71700  0.68490  Biso   1.000  H
  H62      1.0000 0.49810  0.21700  0.81510  Biso   1.000  H
  H63      1.0000 0.49810  0.28300  0.31510  Biso   1.000  H
  H64      1.0000 0.50190  0.78300  0.18490  Biso   1.000  H
