data_image0
_cell_length_a       17.374
_cell_length_b       8.738
_cell_length_c       23.579
_cell_angle_alpha    90
_cell_angle_beta     126.243
_cell_angle_gamma    90

_symmetry_space_group_name_H-M    "P 1"
_symmetry_int_tables_number       1

loop_
  _symmetry_equiv_pos_as_xyz
  'x, y, z'

loop_
  _atom_site_label
  _atom_site_occupancy
  _atom_site_fract_x
  _atom_site_fract_y
  _atom_site_fract_z
  _atom_site_thermal_displace_type
  _atom_site_B_iso_or_equiv
  _atom_site_type_symbol
  Fe1      1.0000 0.50000  0.50000  0.50000  Biso   1.000  Fe
  Fe2      1.0000 0.50000  0.00000  0.00000  Biso   1.000  Fe
  Fe3      1.0000 0.00000  0.50000  0.00000  Biso   1.000  Fe
  Fe4      1.0000 0.00000  0.00000  0.50000  Biso   1.000  Fe
  Cu1      1.0000 0.20894  0.39377  0.25845  Biso   1.000  Cu
  Cu2      1.0000 0.79106  0.89377  0.24155  Biso   1.000  Cu
  Cu3      1.0000 0.79106  0.60623  0.74155  Biso   1.000  Cu
  Cu4      1.0000 0.20894  0.10623  0.75845  Biso   1.000  Cu
  Cu5      1.0000 0.29357  0.75150  0.55435  Biso   1.000  Cu
  Cu6      1.0000 0.70643  0.25150  0.94565  Biso   1.000  Cu
  Cu7      1.0000 0.70643  0.24850  0.44565  Biso   1.000  Cu
  Cu8      1.0000 0.29357  0.74850  0.05435  Biso   1.000  Cu
  Cl1      1.0000 0.68670  0.98020  0.66005  Biso   1.000  Cl
  Cl2      1.0000 0.31330  0.48020  0.83995  Biso   1.000  Cl
  Cl3      1.0000 0.31330  0.01980  0.33995  Biso   1.000  Cl
  Cl4      1.0000 0.68670  0.51980  0.16005  Biso   1.000  Cl
  Cl5      1.0000 0.87217  0.96880  0.83951  Biso   1.000  Cl
  Cl6      1.0000 0.12783  0.46880  0.66049  Biso   1.000  Cl
  Cl7      1.0000 0.12783  0.03120  0.16049  Biso   1.000  Cl
  Cl8      1.0000 0.87217  0.53120  0.33951  Biso   1.000  Cl
  Cl9      1.0000 0.83243  0.19650  0.13958  Biso   1.000  Cl
  Cl10     1.0000 0.16757  0.69650  0.36042  Biso   1.000  Cl
  Cl11     1.0000 0.16757  0.80350  0.86042  Biso   1.000  Cl
  Cl12     1.0000 0.83243  0.30350  0.63958  Biso   1.000  Cl
  Cl13     1.0000 0.66198  0.76130  0.81398  Biso   1.000  Cl
  Cl14     1.0000 0.33802  0.26130  0.68602  Biso   1.000  Cl
  Cl15     1.0000 0.33802  0.23870  0.18602  Biso   1.000  Cl
  Cl16     1.0000 0.66198  0.73870  0.31398  Biso   1.000  Cl
  N1       1.0000 0.49650  0.29290  0.53490  Biso   1.000  N
  N2       1.0000 0.50350  0.79290  0.96510  Biso   1.000  N
  N3       1.0000 0.50350  0.70710  0.46510  Biso   1.000  N
  N4       1.0000 0.49650  0.20710  0.03490  Biso   1.000  N
  N5       1.0000 0.39130  0.44540  0.40570  Biso   1.000  N
  N6       1.0000 0.60870  0.94540  0.09430  Biso   1.000  N
  N7       1.0000 0.60870  0.55460  0.59430  Biso   1.000  N
  N8       1.0000 0.39130  0.05460  0.90570  Biso   1.000  N
  N9       1.0000 0.41530  0.58040  0.52080  Biso   1.000  N
  N10      1.0000 0.58470  0.08040  0.97920  Biso   1.000  N
  N11      1.0000 0.58470  0.41960  0.47920  Biso   1.000  N
  N12      1.0000 0.41530  0.91960  0.02080  Biso   1.000  N
  N13      1.0000 0.02660  0.29220  0.97860  Biso   1.000  N
  N14      1.0000 0.97340  0.79220  0.52140  Biso   1.000  N
  N15      1.0000 0.97340  0.70780  0.02140  Biso   1.000  N
  N16      1.0000 0.02660  0.20780  0.47860  Biso   1.000  N
  N17      1.0000 0.08460  0.45550  0.10030  Biso   1.000  N
  N18      1.0000 0.91540  0.95550  0.39970  Biso   1.000  N
  N19      1.0000 0.91540  0.54450  0.89970  Biso   1.000  N
  N20      1.0000 0.08460  0.04450  0.60030  Biso   1.000  N
  N21      1.0000 0.10940  0.91410  0.50740  Biso   1.000  N
  N22      1.0000 0.89060  0.41410  0.99260  Biso   1.000  N
  N23      1.0000 0.89060  0.08590  0.49260  Biso   1.000  N
  N24      1.0000 0.10940  0.58590  0.00740  Biso   1.000  N
  N25      1.0000 0.10690  0.29260  0.26890  Biso   1.000  N
  N26      1.0000 0.89310  0.79260  0.23110  Biso   1.000  N
  N27      1.0000 0.89310  0.70740  0.73110  Biso   1.000  N
  N28      1.0000 0.10690  0.20740  0.76890  Biso   1.000  N
  N29      1.0000 0.38560  0.78210  0.66510  Biso   1.000  N
  N30      1.0000 0.61440  0.28210  0.83490  Biso   1.000  N
  N31      1.0000 0.61440  0.21790  0.33490  Biso   1.000  N
  N32      1.0000 0.38560  0.71790  0.16510  Biso   1.000  N
  C1       1.0000 0.41290  0.22520  0.51240  Biso   1.000  C
  C2       1.0000 0.58710  0.72520  0.98760  Biso   1.000  C
  C3       1.0000 0.58710  0.77480  0.48760  Biso   1.000  C
  C4       1.0000 0.41290  0.27480  0.01240  Biso   1.000  C
  H1       1.0000 0.35630  0.27900  0.48280  Biso   1.000  H
  H2       1.0000 0.64370  0.77900  0.01720  Biso   1.000  H
  H3       1.0000 0.64370  0.72100  0.51720  Biso   1.000  H
  H4       1.0000 0.35630  0.22100  0.98280  Biso   1.000  H
  C5       1.0000 0.40980  0.07840  0.53240  Biso   1.000  C
  C6       1.0000 0.59020  0.57840  0.96760  Biso   1.000  C
  C7       1.0000 0.59020  0.92160  0.46760  Biso   1.000  C
  C8       1.0000 0.40980  0.42160  0.03240  Biso   1.000  C
  H5       1.0000 0.35130  0.03340  0.51530  Biso   1.000  H
  H6       1.0000 0.64870  0.53340  0.98470  Biso   1.000  H
  H7       1.0000 0.64870  0.96660  0.48470  Biso   1.000  H
  H8       1.0000 0.35130  0.46660  0.01530  Biso   1.000  H
  C9       1.0000 0.49420  0.99730  0.57810  Biso   1.000  C
  C10      1.0000 0.50580  0.49730  0.92190  Biso   1.000  C
  C11      1.0000 0.50580  0.00270  0.42190  Biso   1.000  C
  C12      1.0000 0.49420  0.50270  0.07810  Biso   1.000  C
  H9       1.0000 0.49330  0.89770  0.59170  Biso   1.000  H
  H10      1.0000 0.50670  0.39770  0.90830  Biso   1.000  H
  H11      1.0000 0.50670  0.10230  0.40830  Biso   1.000  H
  H12      1.0000 0.49330  0.60230  0.09170  Biso   1.000  H
  C13      1.0000 0.57830  0.06920  0.60240  Biso   1.000  C
  C14      1.0000 0.42170  0.56920  0.89760  Biso   1.000  C
  C15      1.0000 0.42170  0.93080  0.39760  Biso   1.000  C
  C16      1.0000 0.57830  0.43080  0.10240  Biso   1.000  C
  C17      1.0000 0.57790  0.21510  0.57930  Biso   1.000  C
  C18      1.0000 0.42210  0.71510  0.92070  Biso   1.000  C
  C19      1.0000 0.42210  0.78490  0.42070  Biso   1.000  C
  C20      1.0000 0.57790  0.28490  0.07930  Biso   1.000  C
  H13      1.0000 0.63570  0.26070  0.59510  Biso   1.000  H
  H14      1.0000 0.36430  0.76070  0.90490  Biso   1.000  H
  H15      1.0000 0.36430  0.73930  0.40490  Biso   1.000  H
  H16      1.0000 0.63570  0.23930  0.09510  Biso   1.000  H
  C21      1.0000 0.32380  0.42230  0.34990  Biso   1.000  C
  C22      1.0000 0.67620  0.92230  0.15010  Biso   1.000  C
  C23      1.0000 0.67620  0.57770  0.65010  Biso   1.000  C
  C24      1.0000 0.32380  0.07770  0.84990  Biso   1.000  C
  C25      1.0000 0.36540  0.63720  0.53250  Biso   1.000  C
  C26      1.0000 0.63460  0.13720  0.96750  Biso   1.000  C
  C27      1.0000 0.63460  0.36280  0.46750  Biso   1.000  C
  C28      1.0000 0.36540  0.86280  0.03250  Biso   1.000  C
  C29      1.0000 0.11460  0.23180  0.01590  Biso   1.000  C
  C30      1.0000 0.88540  0.73180  0.48410  Biso   1.000  C
  C31      1.0000 0.88540  0.76820  0.98410  Biso   1.000  C
  C32      1.0000 0.11460  0.26820  0.51590  Biso   1.000  C
  H17      1.0000 0.16480  0.28830  0.05280  Biso   1.000  H
  H18      1.0000 0.83520  0.78830  0.44720  Biso   1.000  H
  H19      1.0000 0.83520  0.71170  0.94720  Biso   1.000  H
  H20      1.0000 0.16480  0.21170  0.55280  Biso   1.000  H
  C33      1.0000 0.13350  0.09000  0.00190  Biso   1.000  C
  C34      1.0000 0.86650  0.59000  0.49810  Biso   1.000  C
  C35      1.0000 0.86650  0.91000  0.99810  Biso   1.000  C
  C36      1.0000 0.13350  0.41000  0.50190  Biso   1.000  C
  H21      1.0000 0.19570  0.05260  0.02880  Biso   1.000  H
  H22      1.0000 0.80430  0.55260  0.47120  Biso   1.000  H
  H23      1.0000 0.80430  0.94740  0.97120  Biso   1.000  H
  H24      1.0000 0.19570  0.44740  0.52880  Biso   1.000  H
  C37      1.0000 0.06040  0.00280  0.94780  Biso   1.000  C
  C38      1.0000 0.93960  0.50280  0.55220  Biso   1.000  C
  C39      1.0000 0.93960  0.99720  0.05220  Biso   1.000  C
  C40      1.0000 0.06040  0.49720  0.44780  Biso   1.000  C
  H25      1.0000 0.07150  0.90570  0.93800  Biso   1.000  H
  H26      1.0000 0.92850  0.40570  0.56200  Biso   1.000  H
  H27      1.0000 0.92850  0.09430  0.06200  Biso   1.000  H
  H28      1.0000 0.07150  0.59430  0.43800  Biso   1.000  H
  C41      1.0000 0.97120  0.06510  0.90950  Biso   1.000  C
  C42      1.0000 0.02880  0.56510  0.59050  Biso   1.000  C
  C43      1.0000 0.02880  0.93490  0.09050  Biso   1.000  C
  C44      1.0000 0.97120  0.43490  0.40950  Biso   1.000  C
  C45      1.0000 0.95490  0.20840  0.92630  Biso   1.000  C
  C46      1.0000 0.04510  0.70840  0.57370  Biso   1.000  C
  C47      1.0000 0.04510  0.79160  0.07370  Biso   1.000  C
  C48      1.0000 0.95490  0.29160  0.42630  Biso   1.000  C
  H29      1.0000 0.89300  0.24670  0.90060  Biso   1.000  H
  H30      1.0000 0.10700  0.74670  0.59940  Biso   1.000  H
  H31      1.0000 0.10700  0.75330  0.09940  Biso   1.000  H
  H32      1.0000 0.89300  0.25330  0.40060  Biso   1.000  H
  C49      1.0000 0.13580  0.43430  0.15980  Biso   1.000  C
  C50      1.0000 0.86420  0.93430  0.34020  Biso   1.000  C
  C51      1.0000 0.86420  0.56570  0.84020  Biso   1.000  C
  C52      1.0000 0.13580  0.06570  0.65980  Biso   1.000  C
  C53      1.0000 0.17910  0.85620  0.52130  Biso   1.000  C
  C54      1.0000 0.82090  0.35620  0.97870  Biso   1.000  C
  C55      1.0000 0.82090  0.14380  0.47870  Biso   1.000  C
  C56      1.0000 0.17910  0.64380  0.02130  Biso   1.000  C
  C57      1.0000 0.12810  0.24860  0.33140  Biso   1.000  C
  C58      1.0000 0.87190  0.74860  0.16860  Biso   1.000  C
  C59      1.0000 0.87190  0.75140  0.66860  Biso   1.000  C
  C60      1.0000 0.12810  0.25140  0.83140  Biso   1.000  C
  H33      1.0000 0.19070  0.25850  0.37120  Biso   1.000  H
  H34      1.0000 0.80930  0.75850  0.12880  Biso   1.000  H
  H35      1.0000 0.80930  0.74150  0.62880  Biso   1.000  H
  H36      1.0000 0.19070  0.24150  0.87120  Biso   1.000  H
  C61      1.0000 0.06080  0.18920  0.33910  Biso   1.000  C
  C62      1.0000 0.93920  0.68920  0.16090  Biso   1.000  C
  C63      1.0000 0.93920  0.81080  0.66090  Biso   1.000  C
  C64      1.0000 0.06080  0.31080  0.83910  Biso   1.000  C
  H37      1.0000 0.07810  0.15970  0.38310  Biso   1.000  H
  H38      1.0000 0.92190  0.65970  0.11690  Biso   1.000  H
  H39      1.0000 0.92190  0.84030  0.61690  Biso   1.000  H
  H40      1.0000 0.07810  0.34030  0.88310  Biso   1.000  H
  C65      1.0000 0.96870  0.17470  0.28100  Biso   1.000  C
  C66      1.0000 0.03130  0.67470  0.21900  Biso   1.000  C
  C67      1.0000 0.03130  0.82530  0.71900  Biso   1.000  C
  C68      1.0000 0.96870  0.32530  0.78100  Biso   1.000  C
  H41      1.0000 0.92200  0.13570  0.28460  Biso   1.000  H
  H42      1.0000 0.07800  0.63570  0.21540  Biso   1.000  H
  H43      1.0000 0.07800  0.86430  0.71540  Biso   1.000  H
  H44      1.0000 0.92200  0.36430  0.78460  Biso   1.000  H
  C69      1.0000 0.94670  0.21950  0.21650  Biso   1.000  C
  C70      1.0000 0.05330  0.71950  0.28350  Biso   1.000  C
  C71      1.0000 0.05330  0.78050  0.78350  Biso   1.000  C
  C72      1.0000 0.94670  0.28050  0.71650  Biso   1.000  C
  C73      1.0000 0.01670  0.27550  0.21260  Biso   1.000  C
  C74      1.0000 0.98330  0.77550  0.28740  Biso   1.000  C
  C75      1.0000 0.98330  0.72450  0.78740  Biso   1.000  C
  C76      1.0000 0.01670  0.22450  0.71260  Biso   1.000  C
  H45      1.0000 0.00080  0.30290  0.16870  Biso   1.000  H
  H46      1.0000 0.99920  0.80290  0.33130  Biso   1.000  H
  H47      1.0000 0.99920  0.69710  0.83130  Biso   1.000  H
  H48      1.0000 0.00080  0.19710  0.66870  Biso   1.000  H
  C77      1.0000 0.35270  0.84020  0.69980  Biso   1.000  C
  C78      1.0000 0.64730  0.34020  0.80020  Biso   1.000  C
  C79      1.0000 0.64730  0.15980  0.30020  Biso   1.000  C
  C80      1.0000 0.35270  0.65980  0.19980  Biso   1.000  C
  H49      1.0000 0.28760  0.85890  0.67480  Biso   1.000  H
  H50      1.0000 0.71240  0.35890  0.82520  Biso   1.000  H
  H51      1.0000 0.71240  0.14110  0.32520  Biso   1.000  H
  H52      1.0000 0.28760  0.64110  0.17480  Biso   1.000  H
  C81      1.0000 0.41050  0.87320  0.77040  Biso   1.000  C
  C82      1.0000 0.58950  0.37320  0.72960  Biso   1.000  C
  C83      1.0000 0.58950  0.12680  0.22960  Biso   1.000  C
  C84      1.0000 0.41050  0.62680  0.27040  Biso   1.000  C
  H53      1.0000 0.38480  0.91180  0.79260  Biso   1.000  H
  H54      1.0000 0.61520  0.41180  0.70740  Biso   1.000  H
  H55      1.0000 0.61520  0.08820  0.20740  Biso   1.000  H
  H56      1.0000 0.38480  0.58820  0.29260  Biso   1.000  H
  C85      1.0000 0.50630  0.84840  0.80750  Biso   1.000  C
  C86      1.0000 0.49370  0.34840  0.69250  Biso   1.000  C
  C87      1.0000 0.49370  0.15160  0.19250  Biso   1.000  C
  C88      1.0000 0.50630  0.65160  0.30750  Biso   1.000  C
  H57      1.0000 0.54720  0.86920  0.85540  Biso   1.000  H
  H58      1.0000 0.45280  0.36920  0.64460  Biso   1.000  H
  H59      1.0000 0.45280  0.13080  0.14460  Biso   1.000  H
  H60      1.0000 0.54720  0.63080  0.35540  Biso   1.000  H
  C89      1.0000 0.54080  0.79170  0.77180  Biso   1.000  C
  C90      1.0000 0.45920  0.29170  0.72820  Biso   1.000  C
  C91      1.0000 0.45920  0.20830  0.22820  Biso   1.000  C
  C92      1.0000 0.54080  0.70830  0.27180  Biso   1.000  C
  C93      1.0000 0.47910  0.75700  0.70180  Biso   1.000  C
  C94      1.0000 0.52090  0.25700  0.79820  Biso   1.000  C
  C95      1.0000 0.52090  0.24300  0.29820  Biso   1.000  C
  C96      1.0000 0.47910  0.74300  0.20180  Biso   1.000  C
  H61      1.0000 0.50320  0.71450  0.67910  Biso   1.000  H
  H62      1.0000 0.49680  0.21450  0.82090  Biso   1.000  H
  H63      1.0000 0.49680  0.28550  0.32090  Biso   1.000  H
  H64      1.0000 0.50320  0.78550  0.17910  Biso   1.000  H
