data_image0
_cell_length_a       8.258
_cell_length_b       8.358
_cell_length_c       10.205
_cell_angle_alpha    89.645
_cell_angle_beta     87.833
_cell_angle_gamma    88.945

_symmetry_space_group_name_H-M    "P 1"
_symmetry_int_tables_number       1

loop_
  _symmetry_equiv_pos_as_xyz
  'x, y, z'

loop_
  _atom_site_label
  _atom_site_occupancy
  _atom_site_fract_x
  _atom_site_fract_y
  _atom_site_fract_z
  _atom_site_thermal_displace_type
  _atom_site_B_iso_or_equiv
  _atom_site_type_symbol
  Fe1      1.0000 0.50000  0.50000  0.50000  Biso   1.000  Fe
  Cu1      1.0000 0.00099  0.20621  0.67618  Biso   1.000  Cu
  Cu2      1.0000 0.99901  0.79379  0.32382  Biso   1.000  Cu
  Cl1      1.0000 0.34290  0.29323  0.97469  Biso   1.000  Cl
  Cl2      1.0000 0.65710  0.70677  0.02531  Biso   1.000  Cl
  Cl3      1.0000 0.17658  0.72548  0.03174  Biso   1.000  Cl
  Cl4      1.0000 0.82342  0.27452  0.96826  Biso   1.000  Cl
  N1       1.0000 0.49210  0.31550  0.33840  Biso   1.000  N
  N2       1.0000 0.50790  0.68450  0.66160  Biso   1.000  N
  N3       1.0000 0.68490  0.36140  0.59140  Biso   1.000  N
  N4       1.0000 0.31510  0.63860  0.40860  Biso   1.000  N
  N5       1.0000 0.32100  0.36700  0.61030  Biso   1.000  N
  N6       1.0000 0.67900  0.63300  0.38970  Biso   1.000  N
  N7       1.0000 0.01220  0.97000  0.73160  Biso   1.000  N
  N8       1.0000 0.98780  0.03000  0.26840  Biso   1.000  N
  C1       1.0000 0.51650  0.15980  0.36530  Biso   1.000  C
  C2       1.0000 0.48350  0.84020  0.63470  Biso   1.000  C
  H1       1.0000 0.55500  0.13190  0.44700  Biso   1.000  H
  H2       1.0000 0.44500  0.86810  0.55300  Biso   1.000  H
  C3       1.0000 0.48750  0.03930  0.27880  Biso   1.000  C
  C4       1.0000 0.51250  0.96070  0.72120  Biso   1.000  C
  H3       1.0000 0.50630  0.93290  0.30180  Biso   1.000  H
  H4       1.0000 0.49370  0.06710  0.69820  Biso   1.000  H
  C5       1.0000 0.43060  0.07810  0.15830  Biso   1.000  C
  C6       1.0000 0.56940  0.92190  0.84170  Biso   1.000  C
  H5       1.0000 0.40690  0.99900  0.09860  Biso   1.000  H
  H6       1.0000 0.59310  0.00100  0.90140  Biso   1.000  H
  C7       1.0000 0.40970  0.23570  0.12810  Biso   1.000  C
  C8       1.0000 0.59030  0.76430  0.87190  Biso   1.000  C
  C9       1.0000 0.44130  0.35200  0.21800  Biso   1.000  C
  C10      1.0000 0.55870  0.64800  0.78200  Biso   1.000  C
  H7       1.0000 0.42720  0.45900  0.19480  Biso   1.000  H
  H8       1.0000 0.57280  0.54100  0.80520  Biso   1.000  H
  C11      1.0000 0.79670  0.29610  0.62900  Biso   1.000  C
  C12      1.0000 0.20330  0.70390  0.37100  Biso   1.000  C
  C13      1.0000 0.20700  0.30310  0.64720  Biso   1.000  C
  C14      1.0000 0.79300  0.69690  0.35280  Biso   1.000  C
  C15      1.0000 0.95570  0.85540  0.65620  Biso   1.000  C
  C16      1.0000 0.04430  0.14460  0.34380  Biso   1.000  C
  H9       1.0000 0.90480  0.88480  0.57970  Biso   1.000  H
  H10      1.0000 0.09520  0.11520  0.42030  Biso   1.000  H
  C17      1.0000 0.96990  0.69470  0.68730  Biso   1.000  C
  C18      1.0000 0.03010  0.30530  0.31270  Biso   1.000  C
  H11      1.0000 0.93240  0.61760  0.63120  Biso   1.000  H
  H12      1.0000 0.06760  0.38240  0.36880  Biso   1.000  H
  C19      1.0000 0.04020  0.65040  0.80230  Biso   1.000  C
  C20      1.0000 0.95980  0.34960  0.19770  Biso   1.000  C
  H13      1.0000 0.05110  0.54310  0.82580  Biso   1.000  H
  H14      1.0000 0.94890  0.45690  0.17420  Biso   1.000  H
  C21      1.0000 0.09410  0.76890  0.88180  Biso   1.000  C
  C22      1.0000 0.90590  0.23110  0.11820  Biso   1.000  C
  C23      1.0000 0.08240  0.92710  0.84220  Biso   1.000  C
  C24      1.0000 0.91760  0.07290  0.15780  Biso   1.000  C
  H15      1.0000 0.12480  0.00580  0.89420  Biso   1.000  H
  H16      1.0000 0.87520  0.99420  0.10580  Biso   1.000  H
