data_image0
_cell_length_a       8.387
_cell_length_b       8.605
_cell_length_c       10.407
_cell_angle_alpha    92.575
_cell_angle_beta     92.975
_cell_angle_gamma    92.992

_symmetry_space_group_name_H-M    "P 1"
_symmetry_int_tables_number       1

loop_
  _symmetry_equiv_pos_as_xyz
  'x, y, z'

loop_
  _atom_site_label
  _atom_site_occupancy
  _atom_site_fract_x
  _atom_site_fract_y
  _atom_site_fract_z
  _atom_site_thermal_displace_type
  _atom_site_B_iso_or_equiv
  _atom_site_type_symbol
  Fe1      1.0000 0.50000  0.00000  0.50000  Biso   1.000  Fe
  Cu1      1.0000 0.02314  0.28333  0.67687  Biso   1.000  Cu
  Cu2      1.0000 0.97686  0.71667  0.32313  Biso   1.000  Cu
  I1       1.0000 0.66023  0.21087  0.96094  Biso   1.000  I
  I2       1.0000 0.33977  0.78913  0.03906  Biso   1.000  I
  I3       1.0000 0.83076  0.77234  0.03865  Biso   1.000  I
  I4       1.0000 0.16924  0.22766  0.96135  Biso   1.000  I
  N1       1.0000 0.50680  0.18340  0.34990  Biso   1.000  N
  N2       1.0000 0.49320  0.81660  0.65010  Biso   1.000  N
  N3       1.0000 0.32260  0.12780  0.59860  Biso   1.000  N
  N4       1.0000 0.67740  0.87220  0.40140  Biso   1.000  N
  N5       1.0000 0.69170  0.13080  0.61250  Biso   1.000  N
  N6       1.0000 0.30830  0.86920  0.38750  Biso   1.000  N
  N7       1.0000 0.01350  0.52030  0.71850  Biso   1.000  N
  N8       1.0000 0.98650  0.47970  0.28150  Biso   1.000  N
  C1       1.0000 0.47020  0.33090  0.37700  Biso   1.000  C
  C2       1.0000 0.52980  0.66910  0.62300  Biso   1.000  C
  H1       1.0000 0.43260  0.35370  0.45790  Biso   1.000  H
  H2       1.0000 0.56740  0.64630  0.54210  Biso   1.000  H
  C3       1.0000 0.48360  0.44880  0.29620  Biso   1.000  C
  C4       1.0000 0.51640  0.55120  0.70380  Biso   1.000  C
  H3       1.0000 0.45410  0.54810  0.32050  Biso   1.000  H
  H4       1.0000 0.54590  0.45190  0.67950  Biso   1.000  H
  C5       1.0000 0.54250  0.41830  0.17570  Biso   1.000  C
  C6       1.0000 0.45750  0.58170  0.82430  Biso   1.000  C
  H5       1.0000 0.55490  0.49710  0.11810  Biso   1.000  H
  H6       1.0000 0.44510  0.50290  0.88190  Biso   1.000  H
  C7       1.0000 0.58250  0.26660  0.14330  Biso   1.000  C
  C8       1.0000 0.41750  0.73340  0.85670  Biso   1.000  C
  C9       1.0000 0.56210  0.15350  0.23370  Biso   1.000  C
  C10      1.0000 0.43790  0.84650  0.76630  Biso   1.000  C
  H7       1.0000 0.58810  0.05230  0.21200  Biso   1.000  H
  H8       1.0000 0.41190  0.94770  0.78800  Biso   1.000  H
  C11      1.0000 0.21870  0.19200  0.63210  Biso   1.000  C
  C12      1.0000 0.78130  0.80800  0.36790  Biso   1.000  C
  C13      1.0000 0.81010  0.18860  0.64690  Biso   1.000  C
  C14      1.0000 0.18990  0.81140  0.35310  Biso   1.000  C
  C15      1.0000 0.05960  0.63230  0.64220  Biso   1.000  C
  C16      1.0000 0.94040  0.36770  0.35780  Biso   1.000  C
  H9       1.0000 0.11070  0.60390  0.56810  Biso   1.000  H
  H10      1.0000 0.88930  0.39610  0.43190  Biso   1.000  H
  C17      1.0000 0.03620  0.78760  0.66640  Biso   1.000  C
  C18      1.0000 0.96380  0.21240  0.33360  Biso   1.000  C
  H11      1.0000 0.06770  0.86080  0.60840  Biso   1.000  H
  H12      1.0000 0.93230  0.13920  0.39160  Biso   1.000  H
  C19      1.0000 0.96570  0.83370  0.77760  Biso   1.000  C
  C20      1.0000 0.03430  0.16630  0.22240  Biso   1.000  C
  H13      1.0000 0.94880  0.93800  0.79670  Biso   1.000  H
  H14      1.0000 0.05120  0.06200  0.20330  Biso   1.000  H
  C21      1.0000 0.92090  0.71920  0.85970  Biso   1.000  C
  C22      1.0000 0.07910  0.28080  0.14030  Biso   1.000  C
  C23      1.0000 0.94340  0.56570  0.82650  Biso   1.000  C
  C24      1.0000 0.05660  0.43430  0.17350  Biso   1.000  C
  H15      1.0000 0.90860  0.48980  0.88110  Biso   1.000  H
  H16      1.0000 0.09140  0.51020  0.11890  Biso   1.000  H
