data_image0
_cell_length_a       27.833
_cell_length_b       5.045
_cell_length_c       17.072
_cell_angle_alpha    90
_cell_angle_beta     102.12
_cell_angle_gamma    90

_symmetry_space_group_name_H-M    "P 1"
_symmetry_int_tables_number       1

loop_
  _symmetry_equiv_pos_as_xyz
  'x, y, z'

loop_
  _atom_site_label
  _atom_site_occupancy
  _atom_site_fract_x
  _atom_site_fract_y
  _atom_site_fract_z
  _atom_site_thermal_displace_type
  _atom_site_B_iso_or_equiv
  _atom_site_type_symbol
  Cu1      1.0000 0.20802  0.31970  0.71445  Biso   1.000  Cu
  Cu2      1.0000 0.79198  0.31970  0.78555  Biso   1.000  Cu
  Cu3      1.0000 0.70802  0.81970  0.71445  Biso   1.000  Cu
  Cu4      1.0000 0.29198  0.81970  0.78555  Biso   1.000  Cu
  Cu5      1.0000 0.79198  0.68030  0.28555  Biso   1.000  Cu
  Cu6      1.0000 0.20802  0.68030  0.21445  Biso   1.000  Cu
  Cu7      1.0000 0.29198  0.18030  0.28555  Biso   1.000  Cu
  Cu8      1.0000 0.70802  0.18030  0.21445  Biso   1.000  Cu
  Cl1      1.0000 0.25981  0.59900  0.66875  Biso   1.000  Cl
  Cl2      1.0000 0.74019  0.59900  0.83125  Biso   1.000  Cl
  Cl3      1.0000 0.75981  0.09900  0.66875  Biso   1.000  Cl
  Cl4      1.0000 0.24019  0.09900  0.83125  Biso   1.000  Cl
  Cl5      1.0000 0.74019  0.40100  0.33125  Biso   1.000  Cl
  Cl6      1.0000 0.25981  0.40100  0.16875  Biso   1.000  Cl
  Cl7      1.0000 0.24019  0.90100  0.33125  Biso   1.000  Cl
  Cl8      1.0000 0.75981  0.90100  0.16875  Biso   1.000  Cl
  S1       1.0000 0.15655  0.05210  0.61277  Biso   1.000  S
  S2       1.0000 0.84345  0.05210  0.88723  Biso   1.000  S
  S3       1.0000 0.65655  0.55210  0.61277  Biso   1.000  S
  S4       1.0000 0.34345  0.55210  0.88723  Biso   1.000  S
  S5       1.0000 0.84345  0.94790  0.38723  Biso   1.000  S
  S6       1.0000 0.15655  0.94790  0.11277  Biso   1.000  S
  S7       1.0000 0.34345  0.44790  0.38723  Biso   1.000  S
  S8       1.0000 0.65655  0.44790  0.11277  Biso   1.000  S
  S9       1.0000 0.13383  0.51280  0.73790  Biso   1.000  S
  S10      1.0000 0.86617  0.51280  0.76210  Biso   1.000  S
  S11      1.0000 0.63383  0.01280  0.73790  Biso   1.000  S
  S12      1.0000 0.36617  0.01280  0.76210  Biso   1.000  S
  S13      1.0000 0.86617  0.48720  0.26210  Biso   1.000  S
  S14      1.0000 0.13383  0.48720  0.23790  Biso   1.000  S
  S15      1.0000 0.36617  0.98720  0.26210  Biso   1.000  S
  S16      1.0000 0.63383  0.98720  0.23790  Biso   1.000  S
  S17      1.0000 0.05919  0.20780  0.50638  Biso   1.000  S
  S18      1.0000 0.94081  0.20780  0.99362  Biso   1.000  S
  S19      1.0000 0.55919  0.70780  0.50638  Biso   1.000  S
  S20      1.0000 0.44081  0.70780  0.99362  Biso   1.000  S
  S21      1.0000 0.94081  0.79220  0.49362  Biso   1.000  S
  S22      1.0000 0.05919  0.79220  0.00638  Biso   1.000  S
  S23      1.0000 0.44081  0.29220  0.49362  Biso   1.000  S
  S24      1.0000 0.55919  0.29220  0.00638  Biso   1.000  S
  S25      1.0000 0.03851  0.60440  0.62220  Biso   1.000  S
  S26      1.0000 0.96149  0.60440  0.87780  Biso   1.000  S
  S27      1.0000 0.53851  0.10440  0.62220  Biso   1.000  S
  S28      1.0000 0.46149  0.10440  0.87780  Biso   1.000  S
  S29      1.0000 0.96149  0.39560  0.37780  Biso   1.000  S
  S30      1.0000 0.03851  0.39560  0.12220  Biso   1.000  S
  S31      1.0000 0.46149  0.89560  0.37780  Biso   1.000  S
  S32      1.0000 0.53851  0.89560  0.12220  Biso   1.000  S
  C1       1.0000 0.02030  0.46300  0.52630  Biso   1.000  C
  C2       1.0000 0.97970  0.46300  0.97370  Biso   1.000  C
  C3       1.0000 0.52030  0.96300  0.52630  Biso   1.000  C
  C4       1.0000 0.47970  0.96300  0.97370  Biso   1.000  C
  C5       1.0000 0.97970  0.53700  0.47370  Biso   1.000  C
  C6       1.0000 0.02030  0.53700  0.02630  Biso   1.000  C
  C7       1.0000 0.47970  0.03700  0.47370  Biso   1.000  C
  C8       1.0000 0.52030  0.03700  0.02630  Biso   1.000  C
  C9       1.0000 0.10440  0.25620  0.59400  Biso   1.000  C
  C10      1.0000 0.89560  0.25620  0.90600  Biso   1.000  C
  C11      1.0000 0.60440  0.75620  0.59400  Biso   1.000  C
  C12      1.0000 0.39560  0.75620  0.90600  Biso   1.000  C
  C13      1.0000 0.89560  0.74380  0.40600  Biso   1.000  C
  C14      1.0000 0.10440  0.74380  0.09400  Biso   1.000  C
  C15      1.0000 0.39560  0.24380  0.40600  Biso   1.000  C
  C16      1.0000 0.60440  0.24380  0.09400  Biso   1.000  C
  C17      1.0000 0.09460  0.43390  0.64620  Biso   1.000  C
  C18      1.0000 0.90540  0.43390  0.85380  Biso   1.000  C
  C19      1.0000 0.59460  0.93390  0.64620  Biso   1.000  C
  C20      1.0000 0.40540  0.93390  0.85380  Biso   1.000  C
  C21      1.0000 0.90540  0.56610  0.35380  Biso   1.000  C
  C22      1.0000 0.09460  0.56610  0.14620  Biso   1.000  C
  C23      1.0000 0.40540  0.06610  0.35380  Biso   1.000  C
  C24      1.0000 0.59460  0.06610  0.14620  Biso   1.000  C
  C25      1.0000 0.17510  0.05400  0.51620  Biso   1.000  C
  C26      1.0000 0.82490  0.05400  0.98380  Biso   1.000  C
  C27      1.0000 0.67510  0.55400  0.51620  Biso   1.000  C
  C28      1.0000 0.32490  0.55400  0.98380  Biso   1.000  C
  C29      1.0000 0.82490  0.94600  0.48380  Biso   1.000  C
  C30      1.0000 0.17510  0.94600  0.01620  Biso   1.000  C
  C31      1.0000 0.32490  0.44600  0.48380  Biso   1.000  C
  C32      1.0000 0.67510  0.44600  0.01620  Biso   1.000  C
  C33      1.0000 0.18380  0.32300  0.48460  Biso   1.000  C
  C34      1.0000 0.81620  0.32300  0.01540  Biso   1.000  C
  C35      1.0000 0.68380  0.82300  0.48460  Biso   1.000  C
  C36      1.0000 0.31620  0.82300  0.01540  Biso   1.000  C
  C37      1.0000 0.81620  0.67700  0.51540  Biso   1.000  C
  C38      1.0000 0.18380  0.67700  0.98460  Biso   1.000  C
  C39      1.0000 0.31620  0.17700  0.51540  Biso   1.000  C
  C40      1.0000 0.68380  0.17700  0.98460  Biso   1.000  C
  C41      1.0000 0.11630  0.24900  0.80360  Biso   1.000  C
  C42      1.0000 0.88370  0.24900  0.69640  Biso   1.000  C
  C43      1.0000 0.61630  0.74900  0.80360  Biso   1.000  C
  C44      1.0000 0.38370  0.74900  0.69640  Biso   1.000  C
  C45      1.0000 0.88370  0.75100  0.19640  Biso   1.000  C
  C46      1.0000 0.11630  0.75100  0.30360  Biso   1.000  C
  C47      1.0000 0.38370  0.25100  0.19640  Biso   1.000  C
  C48      1.0000 0.61630  0.25100  0.30360  Biso   1.000  C
  C49      1.0000 0.06900  0.26300  0.81670  Biso   1.000  C
  C50      1.0000 0.93100  0.26300  0.68330  Biso   1.000  C
  C51      1.0000 0.56900  0.76300  0.81670  Biso   1.000  C
  C52      1.0000 0.43100  0.76300  0.68330  Biso   1.000  C
  C53      1.0000 0.93100  0.73700  0.18330  Biso   1.000  C
  C54      1.0000 0.06900  0.73700  0.31670  Biso   1.000  C
  C55      1.0000 0.43100  0.23700  0.18330  Biso   1.000  C
  C56      1.0000 0.56900  0.23700  0.31670  Biso   1.000  C
  H1       1.0000 0.20500  0.95230  0.52060  Biso   1.000  H
  H2       1.0000 0.79500  0.95230  0.97940  Biso   1.000  H
  H3       1.0000 0.70500  0.45230  0.52060  Biso   1.000  H
  H4       1.0000 0.29500  0.45230  0.97940  Biso   1.000  H
  H5       1.0000 0.79500  0.04770  0.47940  Biso   1.000  H
  H6       1.0000 0.20500  0.04770  0.02060  Biso   1.000  H
  H7       1.0000 0.29500  0.54770  0.47940  Biso   1.000  H
  H8       1.0000 0.70500  0.54770  0.02060  Biso   1.000  H
  H9       1.0000 0.15030  0.96790  0.47680  Biso   1.000  H
  H10      1.0000 0.84970  0.96790  0.02320  Biso   1.000  H
  H11      1.0000 0.65030  0.46790  0.47680  Biso   1.000  H
  H12      1.0000 0.34970  0.46790  0.02320  Biso   1.000  H
  H13      1.0000 0.84970  0.03210  0.52320  Biso   1.000  H
  H14      1.0000 0.15030  0.03210  0.97680  Biso   1.000  H
  H15      1.0000 0.34970  0.53210  0.52320  Biso   1.000  H
  H16      1.0000 0.65030  0.53210  0.97680  Biso   1.000  H
  H17      1.0000 0.20940  0.41260  0.52310  Biso   1.000  H
  H18      1.0000 0.79060  0.41260  0.97690  Biso   1.000  H
  H19      1.0000 0.70940  0.91260  0.52310  Biso   1.000  H
  H20      1.0000 0.29060  0.91260  0.97690  Biso   1.000  H
  H21      1.0000 0.79060  0.58740  0.47690  Biso   1.000  H
  H22      1.0000 0.20940  0.58740  0.02310  Biso   1.000  H
  H23      1.0000 0.29060  0.08740  0.47690  Biso   1.000  H
  H24      1.0000 0.70940  0.08740  0.02310  Biso   1.000  H
  H25      1.0000 0.19340  0.31580  0.43520  Biso   1.000  H
  H26      1.0000 0.80660  0.31580  0.06480  Biso   1.000  H
  H27      1.0000 0.69340  0.81580  0.43520  Biso   1.000  H
  H28      1.0000 0.30660  0.81580  0.06480  Biso   1.000  H
  H29      1.0000 0.80660  0.68420  0.56480  Biso   1.000  H
  H30      1.0000 0.19340  0.68420  0.93520  Biso   1.000  H
  H31      1.0000 0.30660  0.18420  0.56480  Biso   1.000  H
  H32      1.0000 0.69340  0.18420  0.93520  Biso   1.000  H
  H33      1.0000 0.15460  0.42880  0.47960  Biso   1.000  H
  H34      1.0000 0.84540  0.42880  0.02040  Biso   1.000  H
  H35      1.0000 0.65460  0.92880  0.47960  Biso   1.000  H
  H36      1.0000 0.34540  0.92880  0.02040  Biso   1.000  H
  H37      1.0000 0.84540  0.57120  0.52040  Biso   1.000  H
  H38      1.0000 0.15460  0.57120  0.97960  Biso   1.000  H
  H39      1.0000 0.34540  0.07120  0.52040  Biso   1.000  H
  H40      1.0000 0.65460  0.07120  0.97960  Biso   1.000  H
  H41      1.0000 0.11990  0.07720  0.77940  Biso   1.000  H
  H42      1.0000 0.88010  0.07720  0.72060  Biso   1.000  H
  H43      1.0000 0.61990  0.57720  0.77940  Biso   1.000  H
  H44      1.0000 0.38010  0.57720  0.72060  Biso   1.000  H
  H45      1.0000 0.88010  0.92280  0.22060  Biso   1.000  H
  H46      1.0000 0.11990  0.92280  0.27940  Biso   1.000  H
  H47      1.0000 0.38010  0.42280  0.22060  Biso   1.000  H
  H48      1.0000 0.61990  0.42280  0.27940  Biso   1.000  H
  H49      1.0000 0.13930  0.25090  0.85440  Biso   1.000  H
  H50      1.0000 0.86070  0.25090  0.64560  Biso   1.000  H
  H51      1.0000 0.63930  0.75090  0.85440  Biso   1.000  H
  H52      1.0000 0.36070  0.75090  0.64560  Biso   1.000  H
  H53      1.0000 0.86070  0.74910  0.14560  Biso   1.000  H
  H54      1.0000 0.13930  0.74910  0.35440  Biso   1.000  H
  H55      1.0000 0.36070  0.24910  0.14560  Biso   1.000  H
  H56      1.0000 0.63930  0.24910  0.35440  Biso   1.000  H
  H57      1.0000 0.06430  0.43580  0.84140  Biso   1.000  H
  H58      1.0000 0.93570  0.43580  0.65860  Biso   1.000  H
  H59      1.0000 0.56430  0.93580  0.84140  Biso   1.000  H
  H60      1.0000 0.43570  0.93580  0.65860  Biso   1.000  H
  H61      1.0000 0.93570  0.56420  0.15860  Biso   1.000  H
  H62      1.0000 0.06430  0.56420  0.34140  Biso   1.000  H
  H63      1.0000 0.43570  0.06420  0.15860  Biso   1.000  H
  H64      1.0000 0.56430  0.06420  0.34140  Biso   1.000  H
  H65      1.0000 0.04500  0.26000  0.76690  Biso   1.000  H
  H66      1.0000 0.95500  0.26000  0.73310  Biso   1.000  H
  H67      1.0000 0.54500  0.76000  0.76690  Biso   1.000  H
  H68      1.0000 0.45500  0.76000  0.73310  Biso   1.000  H
  H69      1.0000 0.95500  0.74000  0.23310  Biso   1.000  H
  H70      1.0000 0.04500  0.74000  0.26690  Biso   1.000  H
  H71      1.0000 0.45500  0.24000  0.23310  Biso   1.000  H
  H72      1.0000 0.54500  0.24000  0.26690  Biso   1.000  H
  H73      1.0000 0.06120  0.13080  0.85080  Biso   1.000  H
  H74      1.0000 0.93880  0.13080  0.64920  Biso   1.000  H
  H75      1.0000 0.56120  0.63080  0.85080  Biso   1.000  H
  H76      1.0000 0.43880  0.63080  0.64920  Biso   1.000  H
  H77      1.0000 0.93880  0.86920  0.14920  Biso   1.000  H
  H78      1.0000 0.06120  0.86920  0.35080  Biso   1.000  H
  H79      1.0000 0.43880  0.36920  0.14920  Biso   1.000  H
  H80      1.0000 0.56120  0.36920  0.35080  Biso   1.000  H
