data_image0
_cell_length_a       20.085
_cell_length_b       8.128
_cell_length_c       14.602
_cell_angle_alpha    90
_cell_angle_beta     90.969
_cell_angle_gamma    90

_symmetry_space_group_name_H-M    "P 1"
_symmetry_int_tables_number       1

loop_
  _symmetry_equiv_pos_as_xyz
  'x, y, z'

loop_
  _atom_site_label
  _atom_site_occupancy
  _atom_site_fract_x
  _atom_site_fract_y
  _atom_site_fract_z
  _atom_site_thermal_displace_type
  _atom_site_B_iso_or_equiv
  _atom_site_type_symbol
  Cu1      1.0000 0.50000  0.17610  0.75000  Biso   1.000  Cu
  Cu2      1.0000 0.00000  0.67610  0.75000  Biso   1.000  Cu
  Cu3      1.0000 0.50000  0.82390  0.25000  Biso   1.000  Cu
  Cu4      1.0000 0.00000  0.32390  0.25000  Biso   1.000  Cu
  S1       1.0000 0.46117  0.04020  0.62304  Biso   1.000  S
  S2       1.0000 0.53883  0.04020  0.87696  Biso   1.000  S
  S3       1.0000 0.96117  0.54020  0.62304  Biso   1.000  S
  S4       1.0000 0.03883  0.54020  0.87696  Biso   1.000  S
  S5       1.0000 0.53883  0.95980  0.37696  Biso   1.000  S
  S6       1.0000 0.46117  0.95980  0.12304  Biso   1.000  S
  S7       1.0000 0.03883  0.45980  0.37696  Biso   1.000  S
  S8       1.0000 0.96117  0.45980  0.12304  Biso   1.000  S
  S9       1.0000 0.40738  0.34980  0.75458  Biso   1.000  S
  S10      1.0000 0.59262  0.34980  0.74542  Biso   1.000  S
  S11      1.0000 0.90738  0.84980  0.75458  Biso   1.000  S
  S12      1.0000 0.09262  0.84980  0.74542  Biso   1.000  S
  S13      1.0000 0.59262  0.65020  0.24542  Biso   1.000  S
  S14      1.0000 0.40738  0.65020  0.25458  Biso   1.000  S
  S15      1.0000 0.09262  0.15020  0.24542  Biso   1.000  S
  S16      1.0000 0.90738  0.15020  0.25458  Biso   1.000  S
  S17      1.0000 0.29166  0.37160  0.62205  Biso   1.000  S
  S18      1.0000 0.70834  0.37160  0.87795  Biso   1.000  S
  S19      1.0000 0.79166  0.87160  0.62205  Biso   1.000  S
  S20      1.0000 0.20834  0.87160  0.87795  Biso   1.000  S
  S21      1.0000 0.70834  0.62840  0.37795  Biso   1.000  S
  S22      1.0000 0.29166  0.62840  0.12205  Biso   1.000  S
  S23      1.0000 0.20834  0.12840  0.37795  Biso   1.000  S
  S24      1.0000 0.79166  0.12840  0.12205  Biso   1.000  S
  S25      1.0000 0.34213  0.10620  0.50479  Biso   1.000  S
  S26      1.0000 0.65787  0.10620  0.99521  Biso   1.000  S
  S27      1.0000 0.84213  0.60620  0.50479  Biso   1.000  S
  S28      1.0000 0.15787  0.60620  0.99521  Biso   1.000  S
  S29      1.0000 0.65787  0.89380  0.49521  Biso   1.000  S
  S30      1.0000 0.34213  0.89380  0.00479  Biso   1.000  S
  S31      1.0000 0.15787  0.39380  0.49521  Biso   1.000  S
  S32      1.0000 0.84213  0.39380  0.00479  Biso   1.000  S
  C1       1.0000 0.38720  0.15250  0.60510  Biso   1.000  C
  C2       1.0000 0.61280  0.15250  0.89490  Biso   1.000  C
  C3       1.0000 0.88720  0.65250  0.60510  Biso   1.000  C
  C4       1.0000 0.11280  0.65250  0.89490  Biso   1.000  C
  C5       1.0000 0.61280  0.84750  0.39490  Biso   1.000  C
  C6       1.0000 0.38720  0.84750  0.10510  Biso   1.000  C
  C7       1.0000 0.11280  0.34750  0.39490  Biso   1.000  C
  C8       1.0000 0.88720  0.34750  0.10510  Biso   1.000  C
  C9       1.0000 0.36520  0.27230  0.65800  Biso   1.000  C
  C10      1.0000 0.63480  0.27230  0.84200  Biso   1.000  C
  C11      1.0000 0.86520  0.77230  0.65800  Biso   1.000  C
  C12      1.0000 0.13480  0.77230  0.84200  Biso   1.000  C
  C13      1.0000 0.63480  0.72770  0.34200  Biso   1.000  C
  C14      1.0000 0.36520  0.72770  0.15800  Biso   1.000  C
  C15      1.0000 0.13480  0.22770  0.34200  Biso   1.000  C
  C16      1.0000 0.86520  0.22770  0.15800  Biso   1.000  C
  C17      1.0000 0.27750  0.24470  0.52630  Biso   1.000  C
  C18      1.0000 0.72250  0.24470  0.97370  Biso   1.000  C
  C19      1.0000 0.77750  0.74470  0.52630  Biso   1.000  C
  C20      1.0000 0.22250  0.74470  0.97370  Biso   1.000  C
  C21      1.0000 0.72250  0.75530  0.47370  Biso   1.000  C
  C22      1.0000 0.27750  0.75530  0.02630  Biso   1.000  C
  C23      1.0000 0.22250  0.25530  0.47370  Biso   1.000  C
  C24      1.0000 0.77750  0.25530  0.02630  Biso   1.000  C
  C25      1.0000 0.42630  0.83880  0.65700  Biso   1.000  C
  C26      1.0000 0.57370  0.83880  0.84300  Biso   1.000  C
  C27      1.0000 0.92630  0.33880  0.65700  Biso   1.000  C
  C28      1.0000 0.07370  0.33880  0.84300  Biso   1.000  C
  C29      1.0000 0.57370  0.16120  0.34300  Biso   1.000  C
  C30      1.0000 0.42630  0.16120  0.15700  Biso   1.000  C
  C31      1.0000 0.07370  0.66120  0.34300  Biso   1.000  C
  C32      1.0000 0.92630  0.66120  0.15700  Biso   1.000  C
  C33      1.0000 0.38530  0.84000  0.73860  Biso   1.000  C
  C34      1.0000 0.61470  0.84000  0.76140  Biso   1.000  C
  C35      1.0000 0.88530  0.34000  0.73860  Biso   1.000  C
  C36      1.0000 0.11470  0.34000  0.76140  Biso   1.000  C
  C37      1.0000 0.61470  0.16000  0.26140  Biso   1.000  C
  C38      1.0000 0.38530  0.16000  0.23860  Biso   1.000  C
  C39      1.0000 0.11470  0.66000  0.26140  Biso   1.000  C
  C40      1.0000 0.88530  0.66000  0.23860  Biso   1.000  C
  C41      1.0000 0.35250  0.27300  0.84930  Biso   1.000  C
  C42      1.0000 0.64750  0.27300  0.65070  Biso   1.000  C
  C43      1.0000 0.85250  0.77300  0.84930  Biso   1.000  C
  C44      1.0000 0.14750  0.77300  0.65070  Biso   1.000  C
  C45      1.0000 0.64750  0.72700  0.15070  Biso   1.000  C
  C46      1.0000 0.35250  0.72700  0.34930  Biso   1.000  C
  C47      1.0000 0.14750  0.22700  0.15070  Biso   1.000  C
  C48      1.0000 0.85250  0.22700  0.34930  Biso   1.000  C
  C49      1.0000 0.30460  0.38800  0.87250  Biso   1.000  C
  C50      1.0000 0.69540  0.38800  0.62750  Biso   1.000  C
  C51      1.0000 0.80460  0.88800  0.87250  Biso   1.000  C
  C52      1.0000 0.19540  0.88800  0.62750  Biso   1.000  C
  C53      1.0000 0.69540  0.61200  0.12750  Biso   1.000  C
  C54      1.0000 0.30460  0.61200  0.37250  Biso   1.000  C
  C55      1.0000 0.19540  0.11200  0.12750  Biso   1.000  C
  C56      1.0000 0.80460  0.11200  0.37250  Biso   1.000  C
  H1       1.0000 0.33480  0.16870  0.83050  Biso   1.000  H
  H2       1.0000 0.66520  0.16870  0.66950  Biso   1.000  H
  H3       1.0000 0.83480  0.66870  0.83050  Biso   1.000  H
  H4       1.0000 0.16520  0.66870  0.66950  Biso   1.000  H
  H5       1.0000 0.66520  0.83130  0.16950  Biso   1.000  H
  H6       1.0000 0.33480  0.83130  0.33050  Biso   1.000  H
  H7       1.0000 0.16520  0.33130  0.16950  Biso   1.000  H
  H8       1.0000 0.83480  0.33130  0.33050  Biso   1.000  H
  H9       1.0000 0.38110  0.25390  0.90220  Biso   1.000  H
  H10      1.0000 0.61890  0.25390  0.59780  Biso   1.000  H
  H11      1.0000 0.88110  0.75390  0.90220  Biso   1.000  H
  H12      1.0000 0.11890  0.75390  0.59780  Biso   1.000  H
  H13      1.0000 0.61890  0.74610  0.09780  Biso   1.000  H
  H14      1.0000 0.38110  0.74610  0.40220  Biso   1.000  H
  H15      1.0000 0.11890  0.24610  0.09780  Biso   1.000  H
  H16      1.0000 0.88110  0.24610  0.40220  Biso   1.000  H
  H17      1.0000 0.39910  0.79000  0.60990  Biso   1.000  H
  H18      1.0000 0.60090  0.79000  0.89010  Biso   1.000  H
  H19      1.0000 0.89910  0.29000  0.60990  Biso   1.000  H
  H20      1.0000 0.10090  0.29000  0.89010  Biso   1.000  H
  H21      1.0000 0.60090  0.21000  0.39010  Biso   1.000  H
  H22      1.0000 0.39910  0.21000  0.10990  Biso   1.000  H
  H23      1.0000 0.10090  0.71000  0.39010  Biso   1.000  H
  H24      1.0000 0.89910  0.71000  0.10990  Biso   1.000  H
  H25      1.0000 0.46310  0.75730  0.66810  Biso   1.000  H
  H26      1.0000 0.53690  0.75730  0.83190  Biso   1.000  H
  H27      1.0000 0.96310  0.25730  0.66810  Biso   1.000  H
  H28      1.0000 0.03690  0.25730  0.83190  Biso   1.000  H
  H29      1.0000 0.53690  0.24270  0.33190  Biso   1.000  H
  H30      1.0000 0.46310  0.24270  0.16810  Biso   1.000  H
  H31      1.0000 0.03690  0.74270  0.33190  Biso   1.000  H
  H32      1.0000 0.96310  0.74270  0.16810  Biso   1.000  H
  H33      1.0000 0.41220  0.87310  0.79630  Biso   1.000  H
  H34      1.0000 0.58780  0.87310  0.70370  Biso   1.000  H
  H35      1.0000 0.91220  0.37310  0.79630  Biso   1.000  H
  H36      1.0000 0.08780  0.37310  0.70370  Biso   1.000  H
  H37      1.0000 0.58780  0.12690  0.20370  Biso   1.000  H
  H38      1.0000 0.41220  0.12690  0.29630  Biso   1.000  H
  H39      1.0000 0.08780  0.62690  0.20370  Biso   1.000  H
  H40      1.0000 0.91220  0.62690  0.29630  Biso   1.000  H
  H41      1.0000 0.34830  0.90660  0.73820  Biso   1.000  H
  H42      1.0000 0.65170  0.90660  0.76180  Biso   1.000  H
  H43      1.0000 0.84830  0.40660  0.73820  Biso   1.000  H
  H44      1.0000 0.15170  0.40660  0.76180  Biso   1.000  H
  H45      1.0000 0.65170  0.09340  0.26180  Biso   1.000  H
  H46      1.0000 0.34830  0.09340  0.23820  Biso   1.000  H
  H47      1.0000 0.15170  0.59340  0.26180  Biso   1.000  H
  H48      1.0000 0.84830  0.59340  0.23820  Biso   1.000  H
  H49      1.0000 0.36960  0.72710  0.76010  Biso   1.000  H
  H50      1.0000 0.63040  0.72710  0.73990  Biso   1.000  H
  H51      1.0000 0.86960  0.22710  0.76010  Biso   1.000  H
  H52      1.0000 0.13040  0.22710  0.73990  Biso   1.000  H
  H53      1.0000 0.63040  0.27290  0.23990  Biso   1.000  H
  H54      1.0000 0.36960  0.27290  0.26010  Biso   1.000  H
  H55      1.0000 0.13040  0.77290  0.23990  Biso   1.000  H
  H56      1.0000 0.86960  0.77290  0.26010  Biso   1.000  H
  H57      1.0000 0.31520  0.48600  0.89600  Biso   1.000  H
  H58      1.0000 0.68480  0.48600  0.60400  Biso   1.000  H
  H59      1.0000 0.81520  0.98600  0.89600  Biso   1.000  H
  H60      1.0000 0.18480  0.98600  0.60400  Biso   1.000  H
  H61      1.0000 0.68480  0.51400  0.10400  Biso   1.000  H
  H62      1.0000 0.31520  0.51400  0.39600  Biso   1.000  H
  H63      1.0000 0.18480  0.01400  0.10400  Biso   1.000  H
  H64      1.0000 0.81520  0.01400  0.39600  Biso   1.000  H
  H65      1.0000 0.26910  0.40170  0.82380  Biso   1.000  H
  H66      1.0000 0.73090  0.40170  0.67620  Biso   1.000  H
  H67      1.0000 0.76910  0.90170  0.82380  Biso   1.000  H
  H68      1.0000 0.23090  0.90170  0.67620  Biso   1.000  H
  H69      1.0000 0.73090  0.59830  0.17620  Biso   1.000  H
  H70      1.0000 0.26910  0.59830  0.32380  Biso   1.000  H
  H71      1.0000 0.23090  0.09830  0.17620  Biso   1.000  H
  H72      1.0000 0.76910  0.09830  0.32380  Biso   1.000  H
  H73      1.0000 0.27270  0.33490  0.92320  Biso   1.000  H
  H74      1.0000 0.72730  0.33490  0.57680  Biso   1.000  H
  H75      1.0000 0.77270  0.83490  0.92320  Biso   1.000  H
  H76      1.0000 0.22730  0.83490  0.57680  Biso   1.000  H
  H77      1.0000 0.72730  0.66510  0.07680  Biso   1.000  H
  H78      1.0000 0.27270  0.66510  0.42320  Biso   1.000  H
  H79      1.0000 0.22730  0.16510  0.07680  Biso   1.000  H
  H80      1.0000 0.77270  0.16510  0.42320  Biso   1.000  H
  Cl1      1.0000 0.00000  0.00000  0.50000  Biso   1.000  Cl
  Cl2      1.0000 0.00000  0.00000  0.00000  Biso   1.000  Cl
  Cl3      1.0000 0.50000  0.50000  0.50000  Biso   1.000  Cl
  Cl4      1.0000 0.50000  0.50000  0.00000  Biso   1.000  Cl
  O1       1.0000 0.92970  0.02100  0.52920  Biso   1.000  O
  O2       1.0000 0.07030  0.02100  0.97080  Biso   1.000  O
  O3       1.0000 0.42970  0.52100  0.52920  Biso   1.000  O
  O4       1.0000 0.57030  0.52100  0.97080  Biso   1.000  O
  O5       1.0000 0.07030  0.97900  0.47080  Biso   1.000  O
  O6       1.0000 0.92970  0.97900  0.02920  Biso   1.000  O
  O7       1.0000 0.57030  0.47900  0.47080  Biso   1.000  O
  O8       1.0000 0.42970  0.47900  0.02920  Biso   1.000  O
  O9       1.0000 0.00100  0.02100  0.41130  Biso   1.000  O
  O10      1.0000 0.99900  0.02100  0.08870  Biso   1.000  O
  O11      1.0000 0.50100  0.52100  0.41130  Biso   1.000  O
  O12      1.0000 0.49900  0.52100  0.08870  Biso   1.000  O
  O13      1.0000 0.99900  0.97900  0.58870  Biso   1.000  O
  O14      1.0000 0.00100  0.97900  0.91130  Biso   1.000  O
  O15      1.0000 0.49900  0.47900  0.58870  Biso   1.000  O
  O16      1.0000 0.50100  0.47900  0.91130  Biso   1.000  O
