data_image0
_cell_length_a       6.657
_cell_length_b       6.23
_cell_length_c       24.067
_cell_angle_alpha    90
_cell_angle_beta     91.77
_cell_angle_gamma    90

_symmetry_space_group_name_H-M    "P 1"
_symmetry_int_tables_number       1

loop_
  _symmetry_equiv_pos_as_xyz
  'x, y, z'

loop_
  _atom_site_label
  _atom_site_occupancy
  _atom_site_fract_x
  _atom_site_fract_y
  _atom_site_fract_z
  _atom_site_thermal_displace_type
  _atom_site_B_iso_or_equiv
  _atom_site_type_symbol
  Cu1      1.0000 0.29817  0.05192  0.70788  Biso   1.000  Cu
  Cu2      1.0000 0.20183  0.55192  0.79212  Biso   1.000  Cu
  Cu3      1.0000 0.70183  0.94808  0.29212  Biso   1.000  Cu
  Cu4      1.0000 0.79817  0.44808  0.20788  Biso   1.000  Cu
  Cl1      1.0000 0.26470  0.91550  0.79488  Biso   1.000  Cl
  Cl2      1.0000 0.23530  0.41550  0.70512  Biso   1.000  Cl
  Cl3      1.0000 0.73530  0.08450  0.20512  Biso   1.000  Cl
  Cl4      1.0000 0.76470  0.58450  0.29488  Biso   1.000  Cl
  S1       1.0000 0.11120  0.90800  0.63262  Biso   1.000  S
  S2       1.0000 0.38880  0.40800  0.86738  Biso   1.000  S
  S3       1.0000 0.88880  0.09200  0.36738  Biso   1.000  S
  S4       1.0000 0.61120  0.59200  0.13262  Biso   1.000  S
  S5       1.0000 0.60240  0.93700  0.66867  Biso   1.000  S
  S6       1.0000 0.89760  0.43700  0.83133  Biso   1.000  S
  S7       1.0000 0.39760  0.06300  0.33133  Biso   1.000  S
  S8       1.0000 0.10240  0.56300  0.16867  Biso   1.000  S
  S9       1.0000 0.23700  0.65780  0.53436  Biso   1.000  S
  S10      1.0000 0.26300  0.15780  0.96564  Biso   1.000  S
  S11      1.0000 0.76300  0.34220  0.46564  Biso   1.000  S
  S12      1.0000 0.73700  0.84220  0.03436  Biso   1.000  S
  S13      1.0000 0.66890  0.65890  0.56823  Biso   1.000  S
  S14      1.0000 0.83110  0.15890  0.93177  Biso   1.000  S
  S15      1.0000 0.33110  0.34110  0.43177  Biso   1.000  S
  S16      1.0000 0.16890  0.84110  0.06823  Biso   1.000  S
  C1       1.0000 0.48020  0.56490  0.52120  Biso   1.000  C
  C2       1.0000 0.01980  0.06490  0.97880  Biso   1.000  C
  C3       1.0000 0.51980  0.43510  0.47880  Biso   1.000  C
  C4       1.0000 0.98020  0.93510  0.02120  Biso   1.000  C
  C5       1.0000 0.50250  0.79600  0.61110  Biso   1.000  C
  C6       1.0000 0.99750  0.29600  0.88890  Biso   1.000  C
  C7       1.0000 0.49750  0.20400  0.38890  Biso   1.000  C
  C8       1.0000 0.00250  0.70400  0.11110  Biso   1.000  C
  C9       1.0000 0.30740  0.79410  0.59560  Biso   1.000  C
  C10      1.0000 0.19260  0.29410  0.90440  Biso   1.000  C
  C11      1.0000 0.69260  0.20590  0.40440  Biso   1.000  C
  C12      1.0000 0.80740  0.70590  0.09560  Biso   1.000  C
  C13      1.0000 0.70030  0.72060  0.71090  Biso   1.000  C
  C14      1.0000 0.79970  0.22060  0.78910  Biso   1.000  C
  C15      1.0000 0.29970  0.27940  0.28910  Biso   1.000  C
  C16      1.0000 0.20030  0.77940  0.21090  Biso   1.000  C
  C17      1.0000 0.04910  0.13320  0.58870  Biso   1.000  C
  C18      1.0000 0.45090  0.63320  0.91130  Biso   1.000  C
  C19      1.0000 0.95090  0.86680  0.41130  Biso   1.000  C
  C20      1.0000 0.54910  0.36680  0.08870  Biso   1.000  C
  H1       1.0000 0.59320  0.62410  0.72090  Biso   1.000  H
  H2       1.0000 0.90680  0.12410  0.77910  Biso   1.000  H
  H3       1.0000 0.40680  0.37590  0.27910  Biso   1.000  H
  H4       1.0000 0.09320  0.87590  0.22090  Biso   1.000  H
  H5       1.0000 0.79770  0.64000  0.69190  Biso   1.000  H
  H6       1.0000 0.70230  0.14000  0.80810  Biso   1.000  H
  H7       1.0000 0.20230  0.36000  0.30810  Biso   1.000  H
  H8       1.0000 0.29770  0.86000  0.19190  Biso   1.000  H
  H9       1.0000 0.76040  0.77410  0.74490  Biso   1.000  H
  H10      1.0000 0.73960  0.27410  0.75510  Biso   1.000  H
  H11      1.0000 0.23960  0.22590  0.25510  Biso   1.000  H
  H12      1.0000 0.26040  0.72590  0.24490  Biso   1.000  H
  H13      1.0000 0.16310  0.22370  0.58530  Biso   1.000  H
  H14      1.0000 0.33690  0.72370  0.91470  Biso   1.000  H
  H15      1.0000 0.83690  0.77630  0.41470  Biso   1.000  H
  H16      1.0000 0.66310  0.27630  0.08530  Biso   1.000  H
  H17      1.0000 0.00790  0.08340  0.55250  Biso   1.000  H
  H18      1.0000 0.49210  0.58340  0.94750  Biso   1.000  H
  H19      1.0000 0.99210  0.91660  0.44750  Biso   1.000  H
  H20      1.0000 0.50790  0.41660  0.05250  Biso   1.000  H
  H21      1.0000 0.94220  0.21300  0.60390  Biso   1.000  H
  H22      1.0000 0.55780  0.71300  0.89610  Biso   1.000  H
  H23      1.0000 0.05780  0.78700  0.39610  Biso   1.000  H
  H24      1.0000 0.44220  0.28700  0.10390  Biso   1.000  H
