data_image0
_cell_length_a       15.443
_cell_length_b       4.906
_cell_length_c       26.686
_cell_angle_alpha    90
_cell_angle_beta     96.36
_cell_angle_gamma    90

_symmetry_space_group_name_H-M    "P 1"
_symmetry_int_tables_number       1

loop_
  _symmetry_equiv_pos_as_xyz
  'x, y, z'

loop_
  _atom_site_label
  _atom_site_occupancy
  _atom_site_fract_x
  _atom_site_fract_y
  _atom_site_fract_z
  _atom_site_thermal_displace_type
  _atom_site_B_iso_or_equiv
  _atom_site_type_symbol
  Br1      1.0000 0.85137  0.48400  0.73893  Biso   1.000  Br
  Br2      1.0000 0.14863  0.48400  0.76107  Biso   1.000  Br
  Br3      1.0000 0.35137  0.98400  0.73893  Biso   1.000  Br
  Br4      1.0000 0.64863  0.98400  0.76107  Biso   1.000  Br
  Br5      1.0000 0.14863  0.51600  0.26107  Biso   1.000  Br
  Br6      1.0000 0.85137  0.51600  0.23893  Biso   1.000  Br
  Br7      1.0000 0.64863  0.01600  0.26107  Biso   1.000  Br
  Br8      1.0000 0.35137  0.01600  0.23893  Biso   1.000  Br
  Cu1      1.0000 0.72177  0.25880  0.70370  Biso   1.000  Cu
  Cu2      1.0000 0.27823  0.25880  0.79630  Biso   1.000  Cu
  Cu3      1.0000 0.22177  0.75880  0.70370  Biso   1.000  Cu
  Cu4      1.0000 0.77823  0.75880  0.79630  Biso   1.000  Cu
  Cu5      1.0000 0.27823  0.74120  0.29630  Biso   1.000  Cu
  Cu6      1.0000 0.72177  0.74120  0.20370  Biso   1.000  Cu
  Cu7      1.0000 0.77823  0.24120  0.29630  Biso   1.000  Cu
  Cu8      1.0000 0.22177  0.24120  0.20370  Biso   1.000  Cu
  S1       1.0000 0.60570  0.50630  0.65362  Biso   1.000  S
  S2       1.0000 0.39430  0.50630  0.84638  Biso   1.000  S
  S3       1.0000 0.10570  0.00630  0.65362  Biso   1.000  S
  S4       1.0000 0.89430  0.00630  0.84638  Biso   1.000  S
  S5       1.0000 0.39430  0.49370  0.34638  Biso   1.000  S
  S6       1.0000 0.60570  0.49370  0.15362  Biso   1.000  S
  S7       1.0000 0.89430  0.99370  0.34638  Biso   1.000  S
  S8       1.0000 0.10570  0.99370  0.15362  Biso   1.000  S
  S9       1.0000 0.75540  0.05670  0.62628  Biso   1.000  S
  S10      1.0000 0.24460  0.05670  0.87372  Biso   1.000  S
  S11      1.0000 0.25540  0.55670  0.62628  Biso   1.000  S
  S12      1.0000 0.74460  0.55670  0.87372  Biso   1.000  S
  S13      1.0000 0.24460  0.94330  0.37372  Biso   1.000  S
  S14      1.0000 0.75540  0.94330  0.12628  Biso   1.000  S
  S15      1.0000 0.74460  0.44330  0.37372  Biso   1.000  S
  S16      1.0000 0.25540  0.44330  0.12628  Biso   1.000  S
  S17      1.0000 0.49680  0.30080  0.56044  Biso   1.000  S
  S18      1.0000 0.50320  0.30080  0.93956  Biso   1.000  S
  S19      1.0000 0.99680  0.80080  0.56044  Biso   1.000  S
  S20      1.0000 0.00320  0.80080  0.93956  Biso   1.000  S
  S21      1.0000 0.50320  0.69920  0.43956  Biso   1.000  S
  S22      1.0000 0.49680  0.69920  0.06044  Biso   1.000  S
  S23      1.0000 0.00320  0.19920  0.43956  Biso   1.000  S
  S24      1.0000 0.99680  0.19920  0.06044  Biso   1.000  S
  S25      1.0000 0.63480  0.92690  0.53341  Biso   1.000  S
  S26      1.0000 0.36520  0.92690  0.96659  Biso   1.000  S
  S27      1.0000 0.13480  0.42690  0.53341  Biso   1.000  S
  S28      1.0000 0.86520  0.42690  0.96659  Biso   1.000  S
  S29      1.0000 0.36520  0.07310  0.46659  Biso   1.000  S
  S30      1.0000 0.63480  0.07310  0.03341  Biso   1.000  S
  S31      1.0000 0.86520  0.57310  0.46659  Biso   1.000  S
  S32      1.0000 0.13480  0.57310  0.03341  Biso   1.000  S
  C1       1.0000 0.52800  0.04400  0.51940  Biso   1.000  C
  C2       1.0000 0.47200  0.04400  0.98060  Biso   1.000  C
  C3       1.0000 0.02800  0.54400  0.51940  Biso   1.000  C
  C4       1.0000 0.97200  0.54400  0.98060  Biso   1.000  C
  C5       1.0000 0.47200  0.95600  0.48060  Biso   1.000  C
  C6       1.0000 0.52800  0.95600  0.01940  Biso   1.000  C
  C7       1.0000 0.97200  0.45600  0.48060  Biso   1.000  C
  C8       1.0000 0.02800  0.45600  0.01940  Biso   1.000  C
  C9       1.0000 0.65500  0.11200  0.58980  Biso   1.000  C
  C10      1.0000 0.34500  0.11200  0.91020  Biso   1.000  C
  C11      1.0000 0.15500  0.61200  0.58980  Biso   1.000  C
  C12      1.0000 0.84500  0.61200  0.91020  Biso   1.000  C
  C13      1.0000 0.34500  0.88800  0.41020  Biso   1.000  C
  C14      1.0000 0.65500  0.88800  0.08980  Biso   1.000  C
  C15      1.0000 0.84500  0.38800  0.41020  Biso   1.000  C
  C16      1.0000 0.15500  0.38800  0.08980  Biso   1.000  C
  C17      1.0000 0.59300  0.28000  0.60210  Biso   1.000  C
  C18      1.0000 0.40700  0.28000  0.89790  Biso   1.000  C
  C19      1.0000 0.09300  0.78000  0.60210  Biso   1.000  C
  C20      1.0000 0.90700  0.78000  0.89790  Biso   1.000  C
  C21      1.0000 0.40700  0.72000  0.39790  Biso   1.000  C
  C22      1.0000 0.59300  0.72000  0.10210  Biso   1.000  C
  C23      1.0000 0.90700  0.22000  0.39790  Biso   1.000  C
  C24      1.0000 0.09300  0.22000  0.10210  Biso   1.000  C
  C25      1.0000 0.82240  0.30600  0.59890  Biso   1.000  C
  C26      1.0000 0.17760  0.30600  0.90110  Biso   1.000  C
  C27      1.0000 0.32240  0.80600  0.59890  Biso   1.000  C
  C28      1.0000 0.67760  0.80600  0.90110  Biso   1.000  C
  C29      1.0000 0.17760  0.69400  0.40110  Biso   1.000  C
  C30      1.0000 0.82240  0.69400  0.09890  Biso   1.000  C
  C31      1.0000 0.67760  0.19400  0.40110  Biso   1.000  C
  C32      1.0000 0.32240  0.19400  0.09890  Biso   1.000  C
  C33      1.0000 0.50630  0.44200  0.68200  Biso   1.000  C
  C34      1.0000 0.49370  0.44200  0.81800  Biso   1.000  C
  C35      1.0000 0.00630  0.94200  0.68200  Biso   1.000  C
  C36      1.0000 0.99370  0.94200  0.81800  Biso   1.000  C
  C37      1.0000 0.49370  0.55800  0.31800  Biso   1.000  C
  C38      1.0000 0.50630  0.55800  0.18200  Biso   1.000  C
  C39      1.0000 0.99370  0.05800  0.31800  Biso   1.000  C
  C40      1.0000 0.00630  0.05800  0.18200  Biso   1.000  C
  H1       1.0000 0.50430  0.55160  0.71160  Biso   1.000  H
  H2       1.0000 0.49570  0.55160  0.78840  Biso   1.000  H
  H3       1.0000 0.00430  0.05160  0.71160  Biso   1.000  H
  H4       1.0000 0.99570  0.05160  0.78840  Biso   1.000  H
  H5       1.0000 0.49570  0.44840  0.28840  Biso   1.000  H
  H6       1.0000 0.50430  0.44840  0.21160  Biso   1.000  H
  H7       1.0000 0.99570  0.94840  0.28840  Biso   1.000  H
  H8       1.0000 0.00430  0.94840  0.21160  Biso   1.000  H
  H9       1.0000 0.45630  0.48050  0.65910  Biso   1.000  H
  H10      1.0000 0.54370  0.48050  0.84090  Biso   1.000  H
  H11      1.0000 0.95630  0.98050  0.65910  Biso   1.000  H
  H12      1.0000 0.04370  0.98050  0.84090  Biso   1.000  H
  H13      1.0000 0.54370  0.51950  0.34090  Biso   1.000  H
  H14      1.0000 0.45630  0.51950  0.15910  Biso   1.000  H
  H15      1.0000 0.04370  0.01950  0.34090  Biso   1.000  H
  H16      1.0000 0.95630  0.01950  0.15910  Biso   1.000  H
  H17      1.0000 0.50360  0.25360  0.69210  Biso   1.000  H
  H18      1.0000 0.49640  0.25360  0.80790  Biso   1.000  H
  H19      1.0000 0.00360  0.75360  0.69210  Biso   1.000  H
  H20      1.0000 0.99640  0.75360  0.80790  Biso   1.000  H
  H21      1.0000 0.49640  0.74640  0.30790  Biso   1.000  H
  H22      1.0000 0.50360  0.74640  0.19210  Biso   1.000  H
  H23      1.0000 0.99640  0.24640  0.30790  Biso   1.000  H
  H24      1.0000 0.00360  0.24640  0.19210  Biso   1.000  H
  H25      1.0000 0.88080  0.30080  0.61510  Biso   1.000  H
  H26      1.0000 0.11920  0.30080  0.88490  Biso   1.000  H
  H27      1.0000 0.38080  0.80080  0.61510  Biso   1.000  H
  H28      1.0000 0.61920  0.80080  0.88490  Biso   1.000  H
  H29      1.0000 0.11920  0.69920  0.38490  Biso   1.000  H
  H30      1.0000 0.88080  0.69920  0.11510  Biso   1.000  H
  H31      1.0000 0.61920  0.19920  0.38490  Biso   1.000  H
  H32      1.0000 0.38080  0.19920  0.11510  Biso   1.000  H
  H33      1.0000 0.82370  0.27230  0.56380  Biso   1.000  H
  H34      1.0000 0.17630  0.27230  0.93620  Biso   1.000  H
  H35      1.0000 0.32370  0.77230  0.56380  Biso   1.000  H
  H36      1.0000 0.67630  0.77230  0.93620  Biso   1.000  H
  H37      1.0000 0.17630  0.72770  0.43620  Biso   1.000  H
  H38      1.0000 0.82370  0.72770  0.06380  Biso   1.000  H
  H39      1.0000 0.67630  0.22770  0.43620  Biso   1.000  H
  H40      1.0000 0.32370  0.22770  0.06380  Biso   1.000  H
  H41      1.0000 0.79980  0.48630  0.60280  Biso   1.000  H
  H42      1.0000 0.20020  0.48630  0.89720  Biso   1.000  H
  H43      1.0000 0.29980  0.98630  0.60280  Biso   1.000  H
  H44      1.0000 0.70020  0.98630  0.89720  Biso   1.000  H
  H45      1.0000 0.20020  0.51370  0.39720  Biso   1.000  H
  H46      1.0000 0.79980  0.51370  0.10280  Biso   1.000  H
  H47      1.0000 0.70020  0.01370  0.39720  Biso   1.000  H
  H48      1.0000 0.29980  0.01370  0.10280  Biso   1.000  H
