data_image0
_cell_length_a       14.628
_cell_length_b       14.452
_cell_length_c       15.883
_cell_angle_alpha    90
_cell_angle_beta     107.7
_cell_angle_gamma    90

_symmetry_space_group_name_H-M    "P 1"
_symmetry_int_tables_number       1

loop_
  _symmetry_equiv_pos_as_xyz
  'x, y, z'

loop_
  _atom_site_label
  _atom_site_occupancy
  _atom_site_fract_x
  _atom_site_fract_y
  _atom_site_fract_z
  _atom_site_thermal_displace_type
  _atom_site_B_iso_or_equiv
  _atom_site_type_symbol
  C1       1.0000 0.85080  0.83560  0.41220  Biso   1.000  C
  C2       1.0000 0.64920  0.33560  0.08780  Biso   1.000  C
  C3       1.0000 0.14920  0.16440  0.58780  Biso   1.000  C
  C4       1.0000 0.35080  0.66440  0.91220  Biso   1.000  C
  H1       1.0000 0.90980  0.86540  0.45030  Biso   1.000  H
  H2       1.0000 0.59020  0.36540  0.04970  Biso   1.000  H
  H3       1.0000 0.09020  0.13460  0.54970  Biso   1.000  H
  H4       1.0000 0.40980  0.63460  0.95030  Biso   1.000  H
  H5       1.0000 0.84140  0.85560  0.35050  Biso   1.000  H
  H6       1.0000 0.65860  0.35560  0.14950  Biso   1.000  H
  H7       1.0000 0.15860  0.14440  0.64950  Biso   1.000  H
  H8       1.0000 0.34140  0.64440  0.85050  Biso   1.000  H
  C5       1.0000 0.75910  0.99400  0.45090  Biso   1.000  C
  C6       1.0000 0.74090  0.49400  0.04910  Biso   1.000  C
  C7       1.0000 0.24090  0.00600  0.54910  Biso   1.000  C
  C8       1.0000 0.25910  0.50600  0.95090  Biso   1.000  C
  C9       1.0000 0.70470  0.04070  0.49630  Biso   1.000  C
  C10      1.0000 0.79530  0.54070  0.00370  Biso   1.000  C
  C11      1.0000 0.29530  0.95930  0.50370  Biso   1.000  C
  C12      1.0000 0.20470  0.45930  0.99630  Biso   1.000  C
  H9       1.0000 0.66270  0.00760  0.52080  Biso   1.000  H
  H10      1.0000 0.83730  0.50760  0.97920  Biso   1.000  H
  H11      1.0000 0.33730  0.99240  0.47920  Biso   1.000  H
  H12      1.0000 0.16270  0.49240  0.02080  Biso   1.000  H
  C13      1.0000 0.71300  0.13600  0.50510  Biso   1.000  C
  C14      1.0000 0.78700  0.63600  0.99490  Biso   1.000  C
  C15      1.0000 0.28700  0.86400  0.49490  Biso   1.000  C
  C16      1.0000 0.21300  0.36400  0.00510  Biso   1.000  C
  H13      1.0000 0.67680  0.16850  0.53630  Biso   1.000  H
  H14      1.0000 0.82320  0.66850  0.96370  Biso   1.000  H
  H15      1.0000 0.32320  0.83150  0.46370  Biso   1.000  H
  H16      1.0000 0.17680  0.33150  0.03630  Biso   1.000  H
  C17      1.0000 0.77400  0.18460  0.46860  Biso   1.000  C
  C18      1.0000 0.72600  0.68460  0.03140  Biso   1.000  C
  C19      1.0000 0.22600  0.81540  0.53140  Biso   1.000  C
  C20      1.0000 0.27400  0.31540  0.96860  Biso   1.000  C
  H17      1.0000 0.77960  0.24990  0.47500  Biso   1.000  H
  H18      1.0000 0.72040  0.74990  0.02500  Biso   1.000  H
  H19      1.0000 0.22040  0.75010  0.52500  Biso   1.000  H
  H20      1.0000 0.27960  0.25010  0.97500  Biso   1.000  H
  C21      1.0000 0.82650  0.13750  0.42280  Biso   1.000  C
  C22      1.0000 0.67350  0.63750  0.07720  Biso   1.000  C
  C23      1.0000 0.17350  0.86250  0.57720  Biso   1.000  C
  C24      1.0000 0.32650  0.36250  0.92280  Biso   1.000  C
  H21      1.0000 0.86760  0.17090  0.39760  Biso   1.000  H
  H22      1.0000 0.63240  0.67090  0.10240  Biso   1.000  H
  H23      1.0000 0.13240  0.82910  0.60240  Biso   1.000  H
  H24      1.0000 0.36760  0.32910  0.89760  Biso   1.000  H
  C25      1.0000 0.81970  0.04210  0.41350  Biso   1.000  C
  C26      1.0000 0.68030  0.54210  0.08650  Biso   1.000  C
  C27      1.0000 0.18030  0.95790  0.58650  Biso   1.000  C
  C28      1.0000 0.31970  0.45790  0.91350  Biso   1.000  C
  H25      1.0000 0.85580  0.01000  0.38210  Biso   1.000  H
  H26      1.0000 0.64420  0.51000  0.11790  Biso   1.000  H
  H27      1.0000 0.14420  0.99000  0.61790  Biso   1.000  H
  H28      1.0000 0.35580  0.49000  0.88210  Biso   1.000  H
  C29      1.0000 0.75540  0.63690  0.33890  Biso   1.000  C
  C30      1.0000 0.74460  0.13690  0.16110  Biso   1.000  C
  C31      1.0000 0.24460  0.36310  0.66110  Biso   1.000  C
  C32      1.0000 0.25540  0.86310  0.83890  Biso   1.000  C
  H29      1.0000 0.75010  0.65520  0.27750  Biso   1.000  H
  H30      1.0000 0.74990  0.15520  0.22250  Biso   1.000  H
  H31      1.0000 0.24990  0.34480  0.72250  Biso   1.000  H
  H32      1.0000 0.25010  0.84480  0.77750  Biso   1.000  H
  H33      1.0000 0.76670  0.56930  0.34410  Biso   1.000  H
  H34      1.0000 0.73330  0.06930  0.15590  Biso   1.000  H
  H35      1.0000 0.23330  0.43070  0.65590  Biso   1.000  H
  H36      1.0000 0.26670  0.93070  0.84410  Biso   1.000  H
  C33      1.0000 0.56200  0.58890  0.28340  Biso   1.000  C
  C34      1.0000 0.93800  0.08890  0.21660  Biso   1.000  C
  C35      1.0000 0.43800  0.41110  0.71660  Biso   1.000  C
  C36      1.0000 0.06200  0.91110  0.78340  Biso   1.000  C
  C37      1.0000 0.48060  0.62480  0.22260  Biso   1.000  C
  C38      1.0000 0.01940  0.12480  0.27740  Biso   1.000  C
  C39      1.0000 0.51940  0.37520  0.77740  Biso   1.000  C
  C40      1.0000 0.98060  0.87520  0.72260  Biso   1.000  C
  H37      1.0000 0.46880  0.68960  0.22000  Biso   1.000  H
  H38      1.0000 0.03120  0.18960  0.28000  Biso   1.000  H
  H39      1.0000 0.53120  0.31040  0.78000  Biso   1.000  H
  H40      1.0000 0.96880  0.81040  0.72000  Biso   1.000  H
  C41      1.0000 0.41650  0.56520  0.16560  Biso   1.000  C
  C42      1.0000 0.08350  0.06520  0.33440  Biso   1.000  C
  C43      1.0000 0.58350  0.43480  0.83440  Biso   1.000  C
  C44      1.0000 0.91650  0.93480  0.66560  Biso   1.000  C
  H41      1.0000 0.36020  0.58940  0.12430  Biso   1.000  H
  H42      1.0000 0.13980  0.08940  0.37570  Biso   1.000  H
  H43      1.0000 0.63980  0.41060  0.87570  Biso   1.000  H
  H44      1.0000 0.86020  0.91060  0.62430  Biso   1.000  H
  C45      1.0000 0.43390  0.47050  0.16810  Biso   1.000  C
  C46      1.0000 0.06610  0.97050  0.33190  Biso   1.000  C
  C47      1.0000 0.56610  0.52950  0.83190  Biso   1.000  C
  C48      1.0000 0.93390  0.02950  0.66810  Biso   1.000  C
  H45      1.0000 0.39030  0.43050  0.12790  Biso   1.000  H
  H46      1.0000 0.10970  0.93050  0.37210  Biso   1.000  H
  H47      1.0000 0.60970  0.56950  0.87210  Biso   1.000  H
  H48      1.0000 0.89030  0.06950  0.62790  Biso   1.000  H
  C49      1.0000 0.51450  0.43490  0.22920  Biso   1.000  C
  C50      1.0000 0.98550  0.93490  0.27080  Biso   1.000  C
  C51      1.0000 0.48550  0.56510  0.77080  Biso   1.000  C
  C52      1.0000 0.01450  0.06510  0.72920  Biso   1.000  C
  H49      1.0000 0.52610  0.37010  0.23180  Biso   1.000  H
  H50      1.0000 0.97390  0.87010  0.26820  Biso   1.000  H
  H51      1.0000 0.47390  0.62990  0.76820  Biso   1.000  H
  H52      1.0000 0.02610  0.12990  0.73180  Biso   1.000  H
  C53      1.0000 0.57890  0.49430  0.28700  Biso   1.000  C
  C54      1.0000 0.92110  0.99430  0.21300  Biso   1.000  C
  C55      1.0000 0.42110  0.50570  0.71300  Biso   1.000  C
  C56      1.0000 0.07890  0.00570  0.78700  Biso   1.000  C
  H53      1.0000 0.63450  0.46990  0.32910  Biso   1.000  H
  H54      1.0000 0.86550  0.96990  0.17090  Biso   1.000  H
  H55      1.0000 0.36550  0.53010  0.67090  Biso   1.000  H
  H56      1.0000 0.13450  0.03010  0.82910  Biso   1.000  H
  C57      1.0000 0.98280  0.67380  0.38810  Biso   1.000  C
  C58      1.0000 0.51720  0.17380  0.11190  Biso   1.000  C
  C59      1.0000 0.01720  0.32620  0.61190  Biso   1.000  C
  C60      1.0000 0.48280  0.82620  0.88810  Biso   1.000  C
  H57      1.0000 0.02070  0.73130  0.39250  Biso   1.000  H
  H58      1.0000 0.47930  0.23130  0.10750  Biso   1.000  H
  H59      1.0000 0.97930  0.26870  0.60750  Biso   1.000  H
  H60      1.0000 0.52070  0.76870  0.89250  Biso   1.000  H
  H61      1.0000 0.02240  0.62850  0.43050  Biso   1.000  H
  H62      1.0000 0.47760  0.12850  0.06950  Biso   1.000  H
  H63      1.0000 0.97760  0.37150  0.56950  Biso   1.000  H
  H64      1.0000 0.52240  0.87150  0.93050  Biso   1.000  H
  C61      1.0000 0.05230  0.66670  0.23850  Biso   1.000  C
  C62      1.0000 0.44770  0.16670  0.26150  Biso   1.000  C
  C63      1.0000 0.94770  0.33330  0.76150  Biso   1.000  C
  C64      1.0000 0.55230  0.83330  0.73850  Biso   1.000  C
  C65      1.0000 0.14240  0.69040  0.29380  Biso   1.000  C
  C66      1.0000 0.35760  0.19040  0.20620  Biso   1.000  C
  C67      1.0000 0.85760  0.30960  0.70620  Biso   1.000  C
  C68      1.0000 0.64240  0.80960  0.79380  Biso   1.000  C
  H65      1.0000 0.15480  0.69050  0.35610  Biso   1.000  H
  H66      1.0000 0.34520  0.19050  0.14390  Biso   1.000  H
  H67      1.0000 0.84520  0.30950  0.64390  Biso   1.000  H
  H68      1.0000 0.65480  0.80950  0.85610  Biso   1.000  H
  C69      1.0000 0.21430  0.71390  0.25750  Biso   1.000  C
  C70      1.0000 0.28570  0.21390  0.24250  Biso   1.000  C
  C71      1.0000 0.78570  0.28610  0.74250  Biso   1.000  C
  C72      1.0000 0.71430  0.78610  0.75750  Biso   1.000  C
  H69      1.0000 0.27620  0.72940  0.29550  Biso   1.000  H
  H70      1.0000 0.22380  0.22940  0.20450  Biso   1.000  H
  H71      1.0000 0.72380  0.27060  0.70450  Biso   1.000  H
  H72      1.0000 0.77620  0.77060  0.79550  Biso   1.000  H
  C73      1.0000 0.19780  0.71510  0.16780  Biso   1.000  C
  C74      1.0000 0.30220  0.21510  0.33220  Biso   1.000  C
  C75      1.0000 0.80220  0.28490  0.83220  Biso   1.000  C
  C76      1.0000 0.69780  0.78490  0.66780  Biso   1.000  C
  H73      1.0000 0.24760  0.73170  0.14390  Biso   1.000  H
  H74      1.0000 0.25240  0.23170  0.35610  Biso   1.000  H
  H75      1.0000 0.75240  0.26830  0.85610  Biso   1.000  H
  H76      1.0000 0.74760  0.76830  0.64390  Biso   1.000  H
  C77      1.0000 0.10810  0.69200  0.11250  Biso   1.000  C
  C78      1.0000 0.39190  0.19200  0.38750  Biso   1.000  C
  C79      1.0000 0.89190  0.30800  0.88750  Biso   1.000  C
  C80      1.0000 0.60810  0.80800  0.61250  Biso   1.000  C
  H77      1.0000 0.09650  0.69270  0.05030  Biso   1.000  H
  H78      1.0000 0.40350  0.19270  0.44970  Biso   1.000  H
  H79      1.0000 0.90350  0.30730  0.94970  Biso   1.000  H
  H80      1.0000 0.59650  0.80730  0.55030  Biso   1.000  H
  C81      1.0000 0.03450  0.66770  0.14670  Biso   1.000  C
  C82      1.0000 0.46550  0.16770  0.35330  Biso   1.000  C
  C83      1.0000 0.96550  0.33230  0.85330  Biso   1.000  C
  C84      1.0000 0.53450  0.83230  0.64670  Biso   1.000  C
  H81      1.0000 0.97290  0.65190  0.10830  Biso   1.000  H
  H82      1.0000 0.52710  0.15190  0.39170  Biso   1.000  H
  H83      1.0000 0.02710  0.34810  0.89170  Biso   1.000  H
  H84      1.0000 0.47290  0.84810  0.60830  Biso   1.000  H
  C85      1.0000 0.88380  0.66830  0.54450  Biso   1.000  C
  C86      1.0000 0.61620  0.16830  0.95550  Biso   1.000  C
  C87      1.0000 0.11620  0.33170  0.45550  Biso   1.000  C
  C88      1.0000 0.38380  0.83170  0.04450  Biso   1.000  C
  H85      1.0000 0.82770  0.69030  0.56150  Biso   1.000  H
  H86      1.0000 0.67230  0.19030  0.93850  Biso   1.000  H
  H87      1.0000 0.17230  0.30970  0.43850  Biso   1.000  H
  H88      1.0000 0.32770  0.80970  0.06150  Biso   1.000  H
  H89      1.0000 0.94120  0.70110  0.58190  Biso   1.000  H
  H90      1.0000 0.55880  0.20110  0.91810  Biso   1.000  H
  H91      1.0000 0.05880  0.29890  0.41810  Biso   1.000  H
  H92      1.0000 0.44120  0.79890  0.08190  Biso   1.000  H
  C89      1.0000 0.78180  0.50910  0.56780  Biso   1.000  C
  C90      1.0000 0.71820  0.00910  0.93220  Biso   1.000  C
  C91      1.0000 0.21820  0.49090  0.43220  Biso   1.000  C
  C92      1.0000 0.28180  0.99090  0.06780  Biso   1.000  C
  C93      1.0000 0.73820  0.54380  0.62770  Biso   1.000  C
  C94      1.0000 0.76180  0.04380  0.87230  Biso   1.000  C
  C95      1.0000 0.26180  0.45620  0.37230  Biso   1.000  C
  C96      1.0000 0.23820  0.95620  0.12770  Biso   1.000  C
  H93      1.0000 0.76950  0.59010  0.66890  Biso   1.000  H
  H94      1.0000 0.73050  0.09010  0.83110  Biso   1.000  H
  H95      1.0000 0.23050  0.40990  0.33110  Biso   1.000  H
  H96      1.0000 0.26950  0.90990  0.16890  Biso   1.000  H
  C97      1.0000 0.64870  0.51080  0.62730  Biso   1.000  C
  C98      1.0000 0.85130  0.01080  0.87270  Biso   1.000  C
  C99      1.0000 0.35130  0.48920  0.37270  Biso   1.000  C
  C100     1.0000 0.14870  0.98920  0.12730  Biso   1.000  C
  H97      1.0000 0.61870  0.53560  0.66760  Biso   1.000  H
  H98      1.0000 0.88130  0.03560  0.83240  Biso   1.000  H
  H99      1.0000 0.38130  0.46440  0.33240  Biso   1.000  H
  H100     1.0000 0.11870  0.96440  0.16760  Biso   1.000  H
  C101     1.0000 0.60310  0.44250  0.56920  Biso   1.000  C
  C102     1.0000 0.89690  0.94250  0.93080  Biso   1.000  C
  C103     1.0000 0.39690  0.55750  0.43080  Biso   1.000  C
  C104     1.0000 0.10310  0.05750  0.06920  Biso   1.000  C
  H101     1.0000 0.54220  0.42010  0.56950  Biso   1.000  H
  H102     1.0000 0.95780  0.92010  0.93050  Biso   1.000  H
  H103     1.0000 0.45780  0.57990  0.43050  Biso   1.000  H
  H104     1.0000 0.04220  0.07990  0.06950  Biso   1.000  H
  C105     1.0000 0.64730  0.40660  0.51020  Biso   1.000  C
  C106     1.0000 0.85270  0.90660  0.98980  Biso   1.000  C
  C107     1.0000 0.35270  0.59340  0.48980  Biso   1.000  C
  C108     1.0000 0.14730  0.09340  0.01020  Biso   1.000  C
  H105     1.0000 0.61690  0.35870  0.47060  Biso   1.000  H
  H106     1.0000 0.88310  0.85870  0.02940  Biso   1.000  H
  H107     1.0000 0.38310  0.64130  0.52940  Biso   1.000  H
  H108     1.0000 0.11690  0.14130  0.97060  Biso   1.000  H
  C109     1.0000 0.73610  0.44050  0.50880  Biso   1.000  C
  C110     1.0000 0.76390  0.94050  0.99120  Biso   1.000  C
  C111     1.0000 0.26390  0.55950  0.49120  Biso   1.000  C
  C112     1.0000 0.23610  0.05950  0.00880  Biso   1.000  C
  H109     1.0000 0.76530  0.41670  0.46750  Biso   1.000  H
  H110     1.0000 0.73470  0.91670  0.03250  Biso   1.000  H
  H111     1.0000 0.23470  0.58330  0.53250  Biso   1.000  H
  H112     1.0000 0.26530  0.08330  0.96750  Biso   1.000  H
  Cu1      1.0000 0.61617  0.82089  0.32978  Biso   1.000  Cu
  Cu2      1.0000 0.88383  0.32089  0.17022  Biso   1.000  Cu
  Cu3      1.0000 0.38383  0.17911  0.67022  Biso   1.000  Cu
  Cu4      1.0000 0.11617  0.67911  0.82978  Biso   1.000  Cu
  Cu5      1.0000 0.51277  0.96717  0.20919  Biso   1.000  Cu
  Cu6      1.0000 0.98723  0.46717  0.29081  Biso   1.000  Cu
  Cu7      1.0000 0.48723  0.03283  0.79081  Biso   1.000  Cu
  Cu8      1.0000 0.01277  0.53283  0.70919  Biso   1.000  Cu
  Ge1      1.0000 0.86506  0.70076  0.42039  Biso   1.000  Ge
  Ge2      1.0000 0.63494  0.20076  0.07961  Biso   1.000  Ge
  Ge3      1.0000 0.13494  0.29924  0.57961  Biso   1.000  Ge
  Ge4      1.0000 0.36506  0.79924  0.92039  Biso   1.000  Ge
  I1       1.0000 0.65685  0.87170  0.18434  Biso   1.000  I
  I2       1.0000 0.84315  0.37170  0.31566  Biso   1.000  I
  I3       1.0000 0.34315  0.12830  0.81566  Biso   1.000  I
  I4       1.0000 0.15685  0.62830  0.68434  Biso   1.000  I
  I5       1.0000 0.45946  0.89585  0.33860  Biso   1.000  I
  I6       1.0000 0.04054  0.39585  0.16140  Biso   1.000  I
  I7       1.0000 0.54054  0.10415  0.66140  Biso   1.000  I
  I8       1.0000 0.95946  0.60415  0.83860  Biso   1.000  I
  S1       1.0000 0.74927  0.87125  0.44639  Biso   1.000  S
  S2       1.0000 0.75073  0.37125  0.05361  Biso   1.000  S
  S3       1.0000 0.25073  0.12875  0.55361  Biso   1.000  S
  S4       1.0000 0.24927  0.62875  0.94639  Biso   1.000  S
  S5       1.0000 0.64295  0.66334  0.36099  Biso   1.000  S
  S6       1.0000 0.85705  0.16334  0.13901  Biso   1.000  S
  S7       1.0000 0.35705  0.33666  0.63901  Biso   1.000  S
  S8       1.0000 0.14295  0.83666  0.86099  Biso   1.000  S
  S9       1.0000 0.95558  0.62752  0.27649  Biso   1.000  S
  S10      1.0000 0.54442  0.12752  0.22351  Biso   1.000  S
  S11      1.0000 0.04442  0.37248  0.72351  Biso   1.000  S
  S12      1.0000 0.45558  0.87248  0.77649  Biso   1.000  S
  S13      1.0000 0.89871  0.54502  0.56685  Biso   1.000  S
  S14      1.0000 0.60129  0.04502  0.93315  Biso   1.000  S
  S15      1.0000 0.10129  0.45498  0.43315  Biso   1.000  S
  S16      1.0000 0.39871  0.95498  0.06685  Biso   1.000  S
