data_image0
_cell_length_a       16.082
_cell_length_b       21.698
_cell_length_c       4.172
_cell_angle_alpha    101.04
_cell_angle_beta     97.38
_cell_angle_gamma    68.26

_symmetry_space_group_name_H-M    "P 1"
_symmetry_int_tables_number       1

loop_
  _symmetry_equiv_pos_as_xyz
  'x, y, z'

loop_
  _atom_site_label
  _atom_site_occupancy
  _atom_site_fract_x
  _atom_site_fract_y
  _atom_site_fract_z
  _atom_site_thermal_displace_type
  _atom_site_B_iso_or_equiv
  _atom_site_type_symbol
  Cu1      1.0000 0.57535  0.24465  0.73030  Biso   1.000  Cu
  Cu2      1.0000 0.42465  0.75535  0.26970  Biso   1.000  Cu
  Cu3      1.0000 0.42465  0.25540  0.16520  Biso   1.000  Cu
  Cu4      1.0000 0.57535  0.74460  0.83480  Biso   1.000  Cu
  I1       1.0000 0.40648  0.33534  0.72780  Biso   1.000  I
  I2       1.0000 0.59352  0.66466  0.27220  Biso   1.000  I
  I3       1.0000 0.59359  0.16462  0.15080  Biso   1.000  I
  I4       1.0000 0.40641  0.83538  0.84920  Biso   1.000  I
  P1       1.0000 0.66232  0.30604  0.80020  Biso   1.000  P
  P2       1.0000 0.33768  0.69396  0.19980  Biso   1.000  P
  P3       1.0000 0.33754  0.19407  0.02620  Biso   1.000  P
  P4       1.0000 0.66246  0.80593  0.97380  Biso   1.000  P
  C1       1.0000 0.62470  0.38520  0.70300  Biso   1.000  C
  C2       1.0000 0.37530  0.61480  0.29700  Biso   1.000  C
  C3       1.0000 0.67440  0.42670  0.73400  Biso   1.000  C
  C4       1.0000 0.32560  0.57330  0.26600  Biso   1.000  C
  C5       1.0000 0.76380  0.40590  0.86100  Biso   1.000  C
  C6       1.0000 0.23620  0.59410  0.13900  Biso   1.000  C
  C7       1.0000 0.80830  0.34280  0.94700  Biso   1.000  C
  C8       1.0000 0.19170  0.65720  0.05300  Biso   1.000  C
  C9       1.0000 0.77420  0.29110  0.92700  Biso   1.000  C
  C10      1.0000 0.22580  0.70890  0.07300  Biso   1.000  C
  C11      1.0000 0.83160  0.22560  0.01400  Biso   1.000  C
  C12      1.0000 0.16840  0.77440  0.98600  Biso   1.000  C
  C13      1.0000 0.81790  0.16690  0.86200  Biso   1.000  C
  C14      1.0000 0.18210  0.83310  0.13800  Biso   1.000  C
  C15      1.0000 0.87420  0.10500  0.93800  Biso   1.000  C
  C16      1.0000 0.12580  0.89500  0.06200  Biso   1.000  C
  C17      1.0000 0.94570  0.09950  0.16000  Biso   1.000  C
  C18      1.0000 0.05430  0.90050  0.84000  Biso   1.000  C
  C19      1.0000 0.96050  0.15750  0.31200  Biso   1.000  C
  C20      1.0000 0.03950  0.84250  0.68800  Biso   1.000  C
  C21      1.0000 0.90500  0.21860  0.24100  Biso   1.000  C
  C22      1.0000 0.09500  0.78140  0.75900  Biso   1.000  C
  C23      1.0000 0.63120  0.49430  0.62800  Biso   1.000  C
  C24      1.0000 0.36880  0.50570  0.37200  Biso   1.000  C
  C25      1.0000 0.81420  0.45390  0.90200  Biso   1.000  C
  C26      1.0000 0.18580  0.54610  0.09800  Biso   1.000  C
  C27      1.0000 0.37500  0.11570  0.80900  Biso   1.000  C
  C28      1.0000 0.62500  0.88430  0.19100  Biso   1.000  C
  C29      1.0000 0.32510  0.07360  0.70600  Biso   1.000  C
  C30      1.0000 0.67490  0.92640  0.29400  Biso   1.000  C
  C31      1.0000 0.23600  0.09410  0.78700  Biso   1.000  C
  C32      1.0000 0.76400  0.90590  0.21300  Biso   1.000  C
  C33      1.0000 0.19160  0.15730  0.95100  Biso   1.000  C
  C34      1.0000 0.80840  0.84270  0.04900  Biso   1.000  C
  C35      1.0000 0.22660  0.20830  0.06700  Biso   1.000  C
  C36      1.0000 0.77340  0.79170  0.93300  Biso   1.000  C
  C37      1.0000 0.16770  0.27480  0.22900  Biso   1.000  C
  C38      1.0000 0.83230  0.72520  0.77100  Biso   1.000  C
  C39      1.0000 0.09520  0.28070  0.39900  Biso   1.000  C
  C40      1.0000 0.90480  0.71930  0.60100  Biso   1.000  C
  C41      1.0000 0.03920  0.34270  0.53600  Biso   1.000  C
  C42      1.0000 0.96080  0.65730  0.46400  Biso   1.000  C
  C43      1.0000 0.05460  0.40030  0.51700  Biso   1.000  C
  C44      1.0000 0.94540  0.59970  0.48300  Biso   1.000  C
  C45      1.0000 0.12680  0.39530  0.35500  Biso   1.000  C
  C46      1.0000 0.87320  0.60470  0.64500  Biso   1.000  C
  C47      1.0000 0.18270  0.33340  0.21200  Biso   1.000  C
  C48      1.0000 0.81730  0.66660  0.78800  Biso   1.000  C
  C49      1.0000 0.36930  0.00630  0.50700  Biso   1.000  C
  C50      1.0000 0.63070  0.99370  0.49300  Biso   1.000  C
  C51      1.0000 0.18430  0.04690  0.68000  Biso   1.000  C
  C52      1.0000 0.81570  0.95310  0.32000  Biso   1.000  C
  H1       1.0000 0.55700  0.41300  0.60000  Biso   1.000  H
  H2       1.0000 0.44300  0.58700  0.40000  Biso   1.000  H
  H3       1.0000 0.88000  0.33100  0.04100  Biso   1.000  H
  H4       1.0000 0.12000  0.66900  0.95900  Biso   1.000  H
  H5       1.0000 0.76000  0.17100  0.67800  Biso   1.000  H
  H6       1.0000 0.24000  0.82900  0.32200  Biso   1.000  H
  H7       1.0000 0.86100  0.05800  0.81200  Biso   1.000  H
  H8       1.0000 0.13900  0.94200  0.18800  Biso   1.000  H
  H9       1.0000 0.99200  0.05100  0.22100  Biso   1.000  H
  H10      1.0000 0.00800  0.94900  0.77900  Biso   1.000  H
  H11      1.0000 0.01700  0.15600  0.49800  Biso   1.000  H
  H12      1.0000 0.98300  0.84400  0.50200  Biso   1.000  H
  H13      1.0000 0.92000  0.26400  0.37100  Biso   1.000  H
  H14      1.0000 0.08000  0.73600  0.62900  Biso   1.000  H
  H15      1.0000 0.67700  0.52200  0.66400  Biso   1.000  H
  H16      1.0000 0.32300  0.47800  0.33600  Biso   1.000  H
  H17      1.0000 0.60800  0.49000  0.36500  Biso   1.000  H
  H18      1.0000 0.39200  0.51000  0.63500  Biso   1.000  H
  H19      1.0000 0.57100  0.52500  0.76600  Biso   1.000  H
  H20      1.0000 0.42900  0.47500  0.23400  Biso   1.000  H
  H21      1.0000 0.88300  0.43100  0.00600  Biso   1.000  H
  H22      1.0000 0.11700  0.56900  0.99400  Biso   1.000  H
  H23      1.0000 0.81800  0.46800  0.66700  Biso   1.000  H
  H24      1.0000 0.18200  0.53200  0.33300  Biso   1.000  H
  H25      1.0000 0.78100  0.50100  0.06900  Biso   1.000  H
  H26      1.0000 0.21900  0.49900  0.93100  Biso   1.000  H
  H27      1.0000 0.44300  0.08700  0.71700  Biso   1.000  H
  H28      1.0000 0.55700  0.91300  0.28300  Biso   1.000  H
  H29      1.0000 0.12000  0.16900  0.99800  Biso   1.000  H
  H30      1.0000 0.88000  0.83100  0.00200  Biso   1.000  H
  H31      1.0000 0.08200  0.23500  0.42700  Biso   1.000  H
  H32      1.0000 0.91800  0.76500  0.57300  Biso   1.000  H
  H33      1.0000 0.98100  0.34600  0.66300  Biso   1.000  H
  H34      1.0000 0.01900  0.65400  0.33700  Biso   1.000  H
  H35      1.0000 0.00900  0.44900  0.63200  Biso   1.000  H
  H36      1.0000 0.99100  0.55100  0.36800  Biso   1.000  H
  H37      1.0000 0.14100  0.44100  0.34500  Biso   1.000  H
  H38      1.0000 0.85900  0.55900  0.65500  Biso   1.000  H
  H39      1.0000 0.23900  0.33100  0.07400  Biso   1.000  H
  H40      1.0000 0.76100  0.66900  0.92600  Biso   1.000  H
  H41      1.0000 0.32300  0.97800  0.44100  Biso   1.000  H
  H42      1.0000 0.67700  0.02200  0.55900  Biso   1.000  H
  H43      1.0000 0.39100  0.01200  0.27600  Biso   1.000  H
  H44      1.0000 0.60900  0.98800  0.72400  Biso   1.000  H
  H45      1.0000 0.42900  0.97500  0.64100  Biso   1.000  H
  H46      1.0000 0.57100  0.02500  0.35900  Biso   1.000  H
  H47      1.0000 0.11700  0.06900  0.75500  Biso   1.000  H
  H48      1.0000 0.88300  0.93100  0.24500  Biso   1.000  H
  H49      1.0000 0.18100  0.03300  0.40600  Biso   1.000  H
  H50      1.0000 0.81900  0.96700  0.59400  Biso   1.000  H
  H51      1.0000 0.21900  0.99900  0.77600  Biso   1.000  H
  H52      1.0000 0.78100  0.00100  0.22400  Biso   1.000  H
