data_image0
_cell_length_a       10.45
_cell_length_b       14.027
_cell_length_c       18.95
_cell_angle_alpha    90
_cell_angle_beta     100.459
_cell_angle_gamma    90

_symmetry_space_group_name_H-M    "P 1"
_symmetry_int_tables_number       1

loop_
  _symmetry_equiv_pos_as_xyz
  'x, y, z'

loop_
  _atom_site_label
  _atom_site_occupancy
  _atom_site_fract_x
  _atom_site_fract_y
  _atom_site_fract_z
  _atom_site_thermal_displace_type
  _atom_site_B_iso_or_equiv
  _atom_site_type_symbol
  Cu1      1.0000 0.66206  0.37130  0.57692  Biso   1.000  Cu
  Cu2      1.0000 0.83794  0.87130  0.92308  Biso   1.000  Cu
  Cu3      1.0000 0.33794  0.62870  0.42308  Biso   1.000  Cu
  Cu4      1.0000 0.16206  0.12870  0.07692  Biso   1.000  Cu
  P1       1.0000 0.69204  0.43799  0.68449  Biso   1.000  P
  P2       1.0000 0.80796  0.93799  0.81551  Biso   1.000  P
  P3       1.0000 0.30796  0.56201  0.31551  Biso   1.000  P
  P4       1.0000 0.19204  0.06201  0.18449  Biso   1.000  P
  N1       1.0000 0.79600  0.40010  0.50968  Biso   1.000  N
  N2       1.0000 0.70400  0.90010  0.99032  Biso   1.000  N
  N3       1.0000 0.20400  0.59990  0.49032  Biso   1.000  N
  N4       1.0000 0.29600  0.09990  0.00968  Biso   1.000  N
  N5       1.0000 0.55900  0.47530  0.50184  Biso   1.000  N
  N6       1.0000 0.94100  0.97530  0.99816  Biso   1.000  N
  N7       1.0000 0.44100  0.52470  0.49816  Biso   1.000  N
  N8       1.0000 0.05900  0.02470  0.00184  Biso   1.000  N
  N9       1.0000 0.60250  0.23680  0.55064  Biso   1.000  N
  N10      1.0000 0.89750  0.73680  0.94936  Biso   1.000  N
  N11      1.0000 0.39750  0.76320  0.44936  Biso   1.000  N
  N12      1.0000 0.10250  0.26320  0.05064  Biso   1.000  N
  C1       1.0000 0.62690  0.50550  0.45700  Biso   1.000  C
  C2       1.0000 0.87310  0.00550  0.04300  Biso   1.000  C
  C3       1.0000 0.37310  0.49450  0.54300  Biso   1.000  C
  C4       1.0000 0.12690  0.99450  0.95700  Biso   1.000  C
  H1       1.0000 0.59620  0.55450  0.42540  Biso   1.000  H
  H2       1.0000 0.90380  0.05450  0.07460  Biso   1.000  H
  H3       1.0000 0.40380  0.44550  0.57460  Biso   1.000  H
  H4       1.0000 0.09620  0.94550  0.92540  Biso   1.000  H
  C5       1.0000 0.75280  0.46270  0.45600  Biso   1.000  C
  C6       1.0000 0.74720  0.96270  0.04400  Biso   1.000  C
  C7       1.0000 0.24720  0.53730  0.54400  Biso   1.000  C
  C8       1.0000 0.25280  0.03730  0.95600  Biso   1.000  C
  C9       1.0000 0.82240  0.48450  0.40300  Biso   1.000  C
  C10      1.0000 0.67760  0.98450  0.09700  Biso   1.000  C
  C11      1.0000 0.17760  0.51550  0.59700  Biso   1.000  C
  C12      1.0000 0.32240  0.01550  0.90300  Biso   1.000  C
  H5       1.0000 0.79030  0.52850  0.36750  Biso   1.000  H
  H6       1.0000 0.70970  0.02850  0.13250  Biso   1.000  H
  H7       1.0000 0.20970  0.47150  0.63250  Biso   1.000  H
  H8       1.0000 0.29030  0.97150  0.86750  Biso   1.000  H
  C13      1.0000 0.94010  0.44040  0.40350  Biso   1.000  C
  C14      1.0000 0.55990  0.94040  0.09650  Biso   1.000  C
  C15      1.0000 0.05990  0.55960  0.59650  Biso   1.000  C
  C16      1.0000 0.44010  0.05960  0.90350  Biso   1.000  C
  H9       1.0000 0.98800  0.45310  0.36770  Biso   1.000  H
  H10      1.0000 0.51200  0.95310  0.13230  Biso   1.000  H
  H11      1.0000 0.01200  0.54690  0.63230  Biso   1.000  H
  H12      1.0000 0.48800  0.04690  0.86770  Biso   1.000  H
  C17      1.0000 0.98540  0.37740  0.45740  Biso   1.000  C
  C18      1.0000 0.51460  0.87740  0.04260  Biso   1.000  C
  C19      1.0000 0.01460  0.62260  0.54260  Biso   1.000  C
  C20      1.0000 0.48540  0.12260  0.95740  Biso   1.000  C
  H13      1.0000 0.06500  0.34700  0.45890  Biso   1.000  H
  H14      1.0000 0.43500  0.84700  0.04110  Biso   1.000  H
  H15      1.0000 0.93500  0.65300  0.54110  Biso   1.000  H
  H16      1.0000 0.56500  0.15300  0.95890  Biso   1.000  H
  C21      1.0000 0.91170  0.35940  0.50980  Biso   1.000  C
  C22      1.0000 0.58830  0.85940  0.99020  Biso   1.000  C
  C23      1.0000 0.08830  0.64060  0.49020  Biso   1.000  C
  C24      1.0000 0.41170  0.14060  0.00980  Biso   1.000  C
  H17      1.0000 0.94410  0.31720  0.54650  Biso   1.000  H
  H18      1.0000 0.55590  0.81720  0.95350  Biso   1.000  H
  H19      1.0000 0.05590  0.68280  0.45350  Biso   1.000  H
  H20      1.0000 0.44410  0.18280  0.04650  Biso   1.000  H
  C25      1.0000 0.68550  0.16990  0.53630  Biso   1.000  C
  C26      1.0000 0.81450  0.66990  0.96370  Biso   1.000  C
  C27      1.0000 0.31450  0.83010  0.46370  Biso   1.000  C
  C28      1.0000 0.18550  0.33010  0.03630  Biso   1.000  C
  H21      1.0000 0.77270  0.18640  0.54050  Biso   1.000  H
  H22      1.0000 0.72730  0.68640  0.95950  Biso   1.000  H
  H23      1.0000 0.22730  0.81360  0.45950  Biso   1.000  H
  H24      1.0000 0.27270  0.31360  0.04050  Biso   1.000  H
  C29      1.0000 0.64990  0.07810  0.51590  Biso   1.000  C
  C30      1.0000 0.85010  0.57810  0.98410  Biso   1.000  C
  C31      1.0000 0.35010  0.92190  0.48410  Biso   1.000  C
  C32      1.0000 0.14990  0.42190  0.01590  Biso   1.000  C
  H25      1.0000 0.71210  0.03530  0.50580  Biso   1.000  H
  H26      1.0000 0.78790  0.53530  0.99420  Biso   1.000  H
  H27      1.0000 0.28790  0.96470  0.49420  Biso   1.000  H
  H28      1.0000 0.21210  0.46470  0.00580  Biso   1.000  H
  C33      1.0000 0.52150  0.04920  0.51030  Biso   1.000  C
  C34      1.0000 0.97850  0.54920  0.98970  Biso   1.000  C
  C35      1.0000 0.47850  0.95080  0.48970  Biso   1.000  C
  C36      1.0000 0.02150  0.45080  0.01030  Biso   1.000  C
  C37      1.0000 0.43560  0.11850  0.52460  Biso   1.000  C
  C38      1.0000 0.06440  0.61850  0.97540  Biso   1.000  C
  C39      1.0000 0.56440  0.88150  0.47540  Biso   1.000  C
  C40      1.0000 0.93560  0.38150  0.02460  Biso   1.000  C
  H29      1.0000 0.34780  0.10380  0.52110  Biso   1.000  H
  H30      1.0000 0.15220  0.60380  0.97890  Biso   1.000  H
  H31      1.0000 0.65220  0.89620  0.47890  Biso   1.000  H
  H32      1.0000 0.84780  0.39620  0.02110  Biso   1.000  H
  C41      1.0000 0.47870  0.20880  0.54410  Biso   1.000  C
  C42      1.0000 0.02130  0.70880  0.95590  Biso   1.000  C
  C43      1.0000 0.52130  0.79120  0.45590  Biso   1.000  C
  C44      1.0000 0.97870  0.29120  0.04410  Biso   1.000  C
  H33      1.0000 0.41790  0.25330  0.55340  Biso   1.000  H
  H34      1.0000 0.08210  0.75330  0.94660  Biso   1.000  H
  H35      1.0000 0.58210  0.74670  0.44660  Biso   1.000  H
  H36      1.0000 0.91790  0.24670  0.05340  Biso   1.000  H
  C45      1.0000 0.63740  0.56170  0.67340  Biso   1.000  C
  C46      1.0000 0.86260  0.06170  0.82660  Biso   1.000  C
  C47      1.0000 0.36260  0.43830  0.32660  Biso   1.000  C
  C48      1.0000 0.13740  0.93830  0.17340  Biso   1.000  C
  C49      1.0000 0.70700  0.62450  0.63830  Biso   1.000  C
  C50      1.0000 0.79300  0.12450  0.86170  Biso   1.000  C
  C51      1.0000 0.29300  0.37550  0.36170  Biso   1.000  C
  C52      1.0000 0.20700  0.87550  0.13830  Biso   1.000  C
  H37      1.0000 0.78440  0.60460  0.62530  Biso   1.000  H
  H38      1.0000 0.71560  0.10460  0.87470  Biso   1.000  H
  H39      1.0000 0.21560  0.39540  0.37470  Biso   1.000  H
  H40      1.0000 0.28440  0.89540  0.12530  Biso   1.000  H
  C53      1.0000 0.66290  0.71610  0.62240  Biso   1.000  C
  C54      1.0000 0.83710  0.21610  0.87760  Biso   1.000  C
  C55      1.0000 0.33710  0.28390  0.37760  Biso   1.000  C
  C56      1.0000 0.16290  0.78390  0.12240  Biso   1.000  C
  H41      1.0000 0.71190  0.75810  0.60010  Biso   1.000  H
  H42      1.0000 0.78810  0.25810  0.89990  Biso   1.000  H
  H43      1.0000 0.28810  0.24190  0.39990  Biso   1.000  H
  H44      1.0000 0.21190  0.74190  0.10010  Biso   1.000  H
  C57      1.0000 0.54770  0.74520  0.63920  Biso   1.000  C
  C58      1.0000 0.95230  0.24520  0.86080  Biso   1.000  C
  C59      1.0000 0.45230  0.25480  0.36080  Biso   1.000  C
  C60      1.0000 0.04770  0.75480  0.13920  Biso   1.000  C
  H45      1.0000 0.51770  0.80680  0.62810  Biso   1.000  H
  H46      1.0000 0.98230  0.30680  0.87190  Biso   1.000  H
  H47      1.0000 0.48230  0.19320  0.37190  Biso   1.000  H
  H48      1.0000 0.01770  0.69320  0.12810  Biso   1.000  H
  C61      1.0000 0.47630  0.68350  0.67250  Biso   1.000  C
  C62      1.0000 0.02370  0.18350  0.82750  Biso   1.000  C
  C63      1.0000 0.52370  0.31650  0.32750  Biso   1.000  C
  C64      1.0000 0.97630  0.81650  0.17250  Biso   1.000  C
  H49      1.0000 0.39660  0.70310  0.68280  Biso   1.000  H
  H50      1.0000 0.10340  0.20310  0.81720  Biso   1.000  H
  H51      1.0000 0.60340  0.29690  0.31720  Biso   1.000  H
  H52      1.0000 0.89660  0.79690  0.18280  Biso   1.000  H
  C65      1.0000 0.52120  0.59220  0.69100  Biso   1.000  C
  C66      1.0000 0.97880  0.09220  0.80900  Biso   1.000  C
  C67      1.0000 0.47880  0.40780  0.30900  Biso   1.000  C
  C68      1.0000 0.02120  0.90780  0.19100  Biso   1.000  C
  H53      1.0000 0.47340  0.55170  0.71510  Biso   1.000  H
  H54      1.0000 0.02660  0.05170  0.78490  Biso   1.000  H
  H55      1.0000 0.52660  0.44830  0.28490  Biso   1.000  H
  H56      1.0000 0.97340  0.94830  0.21510  Biso   1.000  H
  C69      1.0000 0.86330  0.44800  0.72560  Biso   1.000  C
  C70      1.0000 0.63670  0.94800  0.77440  Biso   1.000  C
  C71      1.0000 0.13670  0.55200  0.27440  Biso   1.000  C
  C72      1.0000 0.36330  0.05200  0.22560  Biso   1.000  C
  C73      1.0000 0.94760  0.37830  0.70950  Biso   1.000  C
  C74      1.0000 0.55240  0.87830  0.79050  Biso   1.000  C
  C75      1.0000 0.05240  0.62170  0.29050  Biso   1.000  C
  C76      1.0000 0.44760  0.12170  0.20950  Biso   1.000  C
  H57      1.0000 0.91540  0.32740  0.68010  Biso   1.000  H
  H58      1.0000 0.58460  0.82740  0.81990  Biso   1.000  H
  H59      1.0000 0.08460  0.67260  0.31990  Biso   1.000  H
  H60      1.0000 0.41540  0.17260  0.18010  Biso   1.000  H
  C77      1.0000 0.08060  0.38400  0.73720  Biso   1.000  C
  C78      1.0000 0.41940  0.88400  0.76280  Biso   1.000  C
  C79      1.0000 0.91940  0.61600  0.26280  Biso   1.000  C
  C80      1.0000 0.58060  0.11600  0.23720  Biso   1.000  C
  H61      1.0000 0.13670  0.33710  0.72610  Biso   1.000  H
  H62      1.0000 0.36330  0.83710  0.77390  Biso   1.000  H
  H63      1.0000 0.86330  0.66290  0.27390  Biso   1.000  H
  H64      1.0000 0.63670  0.16290  0.22610  Biso   1.000  H
  C81      1.0000 0.12810  0.45840  0.78050  Biso   1.000  C
  C82      1.0000 0.37190  0.95840  0.71950  Biso   1.000  C
  C83      1.0000 0.87190  0.54160  0.21950  Biso   1.000  C
  C84      1.0000 0.62810  0.04160  0.28050  Biso   1.000  C
  H65      1.0000 0.21670  0.46200  0.79900  Biso   1.000  H
  H66      1.0000 0.28330  0.96200  0.70100  Biso   1.000  H
  H67      1.0000 0.78330  0.53800  0.20100  Biso   1.000  H
  H68      1.0000 0.71670  0.03800  0.29900  Biso   1.000  H
  C85      1.0000 0.04530  0.52840  0.79700  Biso   1.000  C
  C86      1.0000 0.45470  0.02840  0.70300  Biso   1.000  C
  C87      1.0000 0.95470  0.47160  0.20300  Biso   1.000  C
  C88      1.0000 0.54530  0.97160  0.29700  Biso   1.000  C
  H69      1.0000 0.07850  0.57930  0.82620  Biso   1.000  H
  H70      1.0000 0.42150  0.07930  0.67380  Biso   1.000  H
  H71      1.0000 0.92150  0.42070  0.17380  Biso   1.000  H
  H72      1.0000 0.57850  0.92070  0.32620  Biso   1.000  H
  C89      1.0000 0.91320  0.52310  0.77020  Biso   1.000  C
  C90      1.0000 0.58680  0.02310  0.72980  Biso   1.000  C
  C91      1.0000 0.08680  0.47690  0.22980  Biso   1.000  C
  C92      1.0000 0.41320  0.97690  0.27020  Biso   1.000  C
  H73      1.0000 0.85760  0.56990  0.78210  Biso   1.000  H
  H74      1.0000 0.64240  0.06990  0.71790  Biso   1.000  H
  H75      1.0000 0.14240  0.43010  0.21790  Biso   1.000  H
  H76      1.0000 0.35760  0.93010  0.28210  Biso   1.000  H
  C93      1.0000 0.60850  0.39330  0.75390  Biso   1.000  C
  C94      1.0000 0.89150  0.89330  0.74610  Biso   1.000  C
  C95      1.0000 0.39150  0.60670  0.24610  Biso   1.000  C
  C96      1.0000 0.10850  0.10670  0.25390  Biso   1.000  C
  C97      1.0000 0.62070  0.43660  0.82080  Biso   1.000  C
  C98      1.0000 0.87930  0.93660  0.67920  Biso   1.000  C
  C99      1.0000 0.37930  0.56340  0.17920  Biso   1.000  C
  C100     1.0000 0.12070  0.06340  0.32080  Biso   1.000  C
  H77      1.0000 0.67890  0.48670  0.83250  Biso   1.000  H
  H78      1.0000 0.82110  0.98670  0.66750  Biso   1.000  H
  H79      1.0000 0.32110  0.51330  0.16750  Biso   1.000  H
  H80      1.0000 0.17890  0.01330  0.33250  Biso   1.000  H
  C101     1.0000 0.54730  0.40590  0.86990  Biso   1.000  C
  C102     1.0000 0.95270  0.90590  0.63010  Biso   1.000  C
  C103     1.0000 0.45270  0.59410  0.13010  Biso   1.000  C
  C104     1.0000 0.04730  0.09410  0.36990  Biso   1.000  C
  H81      1.0000 0.55520  0.43590  0.91430  Biso   1.000  H
  H82      1.0000 0.94480  0.93590  0.58570  Biso   1.000  H
  H83      1.0000 0.44480  0.56410  0.08570  Biso   1.000  H
  H84      1.0000 0.05520  0.06410  0.41430  Biso   1.000  H
  C105     1.0000 0.46250  0.33120  0.85330  Biso   1.000  C
  C106     1.0000 0.03750  0.83120  0.64670  Biso   1.000  C
  C107     1.0000 0.53750  0.66880  0.14670  Biso   1.000  C
  C108     1.0000 0.96250  0.16880  0.35330  Biso   1.000  C
  H85      1.0000 0.41330  0.31020  0.88660  Biso   1.000  H
  H86      1.0000 0.08670  0.81020  0.61340  Biso   1.000  H
  H87      1.0000 0.58670  0.68980  0.11340  Biso   1.000  H
  H88      1.0000 0.91330  0.18980  0.38660  Biso   1.000  H
  C109     1.0000 0.45020  0.28780  0.78860  Biso   1.000  C
  C110     1.0000 0.04980  0.78780  0.71140  Biso   1.000  C
  C111     1.0000 0.54980  0.71220  0.21140  Biso   1.000  C
  C112     1.0000 0.95020  0.21220  0.28860  Biso   1.000  C
  H89      1.0000 0.39260  0.23710  0.77760  Biso   1.000  H
  H90      1.0000 0.10740  0.73710  0.72240  Biso   1.000  H
  H91      1.0000 0.60740  0.76290  0.22240  Biso   1.000  H
  H92      1.0000 0.89260  0.26290  0.27760  Biso   1.000  H
  C113     1.0000 0.52290  0.31840  0.73850  Biso   1.000  C
  C114     1.0000 0.97710  0.81840  0.76150  Biso   1.000  C
  C115     1.0000 0.47710  0.68160  0.26150  Biso   1.000  C
  C116     1.0000 0.02290  0.18160  0.23850  Biso   1.000  C
  H93      1.0000 0.51380  0.28810  0.69420  Biso   1.000  H
  H94      1.0000 0.98620  0.78810  0.80580  Biso   1.000  H
  H95      1.0000 0.48620  0.71190  0.30580  Biso   1.000  H
  H96      1.0000 0.01380  0.21190  0.19420  Biso   1.000  H
  B1       1.0000 0.13020  0.16380  0.59950  Biso   1.000  B
  B2       1.0000 0.36980  0.66380  0.90050  Biso   1.000  B
  B3       1.0000 0.86980  0.83620  0.40050  Biso   1.000  B
  B4       1.0000 0.63020  0.33620  0.09950  Biso   1.000  B
  F1       1.0000 0.15130  0.07810  0.56790  Biso   1.000  F
  F2       1.0000 0.34870  0.57810  0.93210  Biso   1.000  F
  F3       1.0000 0.84870  0.92190  0.43210  Biso   1.000  F
  F4       1.0000 0.65130  0.42190  0.06790  Biso   1.000  F
  F5       1.0000 0.22180  0.18220  0.65960  Biso   1.000  F
  F6       1.0000 0.27820  0.68220  0.84040  Biso   1.000  F
  F7       1.0000 0.77820  0.81780  0.34040  Biso   1.000  F
  F8       1.0000 0.72180  0.31780  0.15960  Biso   1.000  F
  F9       1.0000 0.16170  0.22540  0.54710  Biso   1.000  F
  F10      1.0000 0.33830  0.72540  0.95290  Biso   1.000  F
  F11      1.0000 0.83830  0.77460  0.45290  Biso   1.000  F
  F12      1.0000 0.66170  0.27460  0.04710  Biso   1.000  F
  F13      1.0000 0.01220  0.18320  0.61700  Biso   1.000  F
  F14      1.0000 0.48780  0.68320  0.88300  Biso   1.000  F
  F15      1.0000 0.98780  0.81680  0.38300  Biso   1.000  F
  F16      1.0000 0.51220  0.31680  0.11700  Biso   1.000  F
  F17      1.0000 0.17730  0.07660  0.59010  Biso   1.000  F
  F18      1.0000 0.32270  0.57660  0.90990  Biso   1.000  F
  F19      1.0000 0.82270  0.92340  0.40990  Biso   1.000  F
  F20      1.0000 0.67730  0.42340  0.09010  Biso   1.000  F
  F21      1.0000 0.17550  0.14690  0.67990  Biso   1.000  F
  F22      1.0000 0.32450  0.64690  0.82010  Biso   1.000  F
  F23      1.0000 0.82450  0.85310  0.32010  Biso   1.000  F
  F24      1.0000 0.67550  0.35310  0.17990  Biso   1.000  F
  F25      1.0000 0.18750  0.24720  0.59140  Biso   1.000  F
  F26      1.0000 0.31250  0.74720  0.90860  Biso   1.000  F
  F27      1.0000 0.81250  0.75280  0.40860  Biso   1.000  F
  F28      1.0000 0.68750  0.25280  0.09140  Biso   1.000  F
  F29      1.0000 0.99380  0.15880  0.58370  Biso   1.000  F
  F30      1.0000 0.50620  0.65880  0.91630  Biso   1.000  F
  F31      1.0000 0.00620  0.84120  0.41630  Biso   1.000  F
  F32      1.0000 0.49380  0.34120  0.08370  Biso   1.000  F
