data_image0
_cell_length_a       10.0261
_cell_length_b       10.6352
_cell_length_c       12.5835
_cell_angle_alpha    66.299
_cell_angle_beta     75.767
_cell_angle_gamma    65.549

_symmetry_space_group_name_H-M    "P 1"
_symmetry_int_tables_number       1

loop_
  _symmetry_equiv_pos_as_xyz
  'x, y, z'

loop_
  _atom_site_label
  _atom_site_occupancy
  _atom_site_fract_x
  _atom_site_fract_y
  _atom_site_fract_z
  _atom_site_thermal_displace_type
  _atom_site_B_iso_or_equiv
  _atom_site_type_symbol
  C1       1.0000 0.39400  0.42260  0.72860  Biso   1.000  C
  C2       1.0000 0.60600  0.57740  0.27140  Biso   1.000  C
  H1       1.0000 0.43890  0.36600  0.79760  Biso   1.000  H
  H2       1.0000 0.56110  0.63400  0.20240  Biso   1.000  H
  C3       1.0000 0.26090  0.61290  0.59530  Biso   1.000  C
  C4       1.0000 0.73910  0.38710  0.40470  Biso   1.000  C
  C5       1.0000 0.17300  0.74960  0.52710  Biso   1.000  C
  C6       1.0000 0.82700  0.25040  0.47290  Biso   1.000  C
  H3       1.0000 0.12660  0.82850  0.55420  Biso   1.000  H
  H4       1.0000 0.87340  0.17150  0.44580  Biso   1.000  H
  C7       1.0000 0.15840  0.76140  0.41630  Biso   1.000  C
  C8       1.0000 0.84160  0.23860  0.58370  Biso   1.000  C
  H5       1.0000 0.10420  0.85190  0.36640  Biso   1.000  H
  H6       1.0000 0.89580  0.14810  0.63360  Biso   1.000  H
  C9       1.0000 0.22290  0.64090  0.37740  Biso   1.000  C
  C10      1.0000 0.77710  0.35910  0.62260  Biso   1.000  C
  C11      1.0000 0.30930  0.50520  0.44670  Biso   1.000  C
  C12      1.0000 0.69070  0.49480  0.55330  Biso   1.000  C
  H7       1.0000 0.35280  0.42560  0.42050  Biso   1.000  H
  H8       1.0000 0.64720  0.57440  0.57950  Biso   1.000  H
  C13      1.0000 0.32860  0.49220  0.55710  Biso   1.000  C
  C14      1.0000 0.67140  0.50780  0.44290  Biso   1.000  C
  C15      1.0000 0.19730  0.65840  0.25890  Biso   1.000  C
  C16      1.0000 0.80270  0.34160  0.74110  Biso   1.000  C
  C17      1.0000 0.75990  0.12480  0.18760  Biso   1.000  C
  C18      1.0000 0.24010  0.87520  0.81240  Biso   1.000  C
  C19      1.0000 0.74610  0.02010  0.30800  Biso   1.000  C
  C20      1.0000 0.25390  0.97990  0.69200  Biso   1.000  C
  C21      1.0000 0.81560  0.86610  0.33180  Biso   1.000  C
  C22      1.0000 0.18440  0.13390  0.66820  Biso   1.000  C
  H9       1.0000 0.86160  0.83140  0.27010  Biso   1.000  H
  H10      1.0000 0.13840  0.16860  0.72990  Biso   1.000  H
  C23      1.0000 0.81670  0.76790  0.44230  Biso   1.000  C
  C24      1.0000 0.18330  0.23210  0.55770  Biso   1.000  C
  H11      1.0000 0.86190  0.66730  0.45670  Biso   1.000  H
  H12      1.0000 0.13810  0.33270  0.54330  Biso   1.000  H
  C25      1.0000 0.74790  0.82300  0.53310  Biso   1.000  C
  C26      1.0000 0.25210  0.17700  0.46690  Biso   1.000  C
  C27      1.0000 0.65910  0.86500  0.69740  Biso   1.000  C
  C28      1.0000 0.34090  0.13500  0.30260  Biso   1.000  C
  H13      1.0000 0.63590  0.84770  0.77710  Biso   1.000  H
  H14      1.0000 0.36410  0.15230  0.22290  Biso   1.000  H
  C29      1.0000 0.67730  0.97560  0.51170  Biso   1.000  C
  C30      1.0000 0.32270  0.02440  0.48830  Biso   1.000  C
  C31      1.0000 0.67450  0.07440  0.39830  Biso   1.000  C
  C32      1.0000 0.32550  0.92560  0.60170  Biso   1.000  C
  H15      1.0000 0.62570  0.17480  0.38330  Biso   1.000  H
  H16      1.0000 0.37430  0.82520  0.61670  Biso   1.000  H
  C33      1.0000 0.51760  0.56000  0.00870  Biso   1.000  C
  C34      1.0000 0.48240  0.44000  0.99130  Biso   1.000  C
  C35      1.0000 0.00070  0.45470  0.06590  Biso   1.000  C
  C36      1.0000 0.99930  0.54530  0.93410  Biso   1.000  C
  Cu1      1.0000 0.52259  0.18044  0.64142  Biso   1.000  Cu
  Cu2      1.0000 0.47741  0.81956  0.35858  Biso   1.000  Cu
  Eu1      1.0000 0.16578  0.67448  0.03410  Biso   1.000  Eu
  Eu2      1.0000 0.83422  0.32552  0.96590  Biso   1.000  Eu
  N1       1.0000 0.41120  0.37250  0.64390  Biso   1.000  N
  N2       1.0000 0.58880  0.62750  0.35610  Biso   1.000  N
  N3       1.0000 0.30510  0.56350  0.70500  Biso   1.000  N
  N4       1.0000 0.69490  0.43650  0.29500  Biso   1.000  N
  H17      1.0000 0.28000  0.61410  0.75010  Biso   1.000  H
  H18      1.0000 0.72000  0.38590  0.24990  Biso   1.000  H
  N5       1.0000 0.62220  0.99800  0.61780  Biso   1.000  N
  N6       1.0000 0.37780  0.00200  0.38220  Biso   1.000  N
  N7       1.0000 0.73290  0.75830  0.65200  Biso   1.000  N
  N8       1.0000 0.26710  0.24170  0.34800  Biso   1.000  N
  H19      1.0000 0.76520  0.66560  0.69030  Biso   1.000  H
  H20      1.0000 0.23480  0.33440  0.30970  Biso   1.000  H
  O1       1.0000 0.21280  0.54570  0.23860  Biso   1.000  O
  O2       1.0000 0.78720  0.45430  0.76140  Biso   1.000  O
  O3       1.0000 0.15940  0.78360  0.18190  Biso   1.000  O
  O4       1.0000 0.84060  0.21640  0.81810  Biso   1.000  O
  O5       1.0000 0.82820  0.07940  0.10340  Biso   1.000  O
  O6       1.0000 0.17180  0.92060  0.89660  Biso   1.000  O
  O7       1.0000 0.70650  0.26160  0.17100  Biso   1.000  O
  O8       1.0000 0.29350  0.73840  0.82900  Biso   1.000  O
  O9       1.0000 0.64990  0.55090  0.98780  Biso   1.000  O
  O10      1.0000 0.35010  0.44910  0.01220  Biso   1.000  O
  O11      1.0000 0.41450  0.65410  0.04320  Biso   1.000  O
  O12      1.0000 0.58550  0.34590  0.95680  Biso   1.000  O
  O13      1.0000 0.94940  0.35330  0.09940  Biso   1.000  O
  O14      1.0000 0.05060  0.64670  0.90060  Biso   1.000  O
  O15      1.0000 0.05250  0.48710  0.12700  Biso   1.000  O
  O16      1.0000 0.94750  0.51290  0.87300  Biso   1.000  O
  O17      1.0000 0.91100  0.82670  0.05820  Biso   1.000  O
  O18      1.0000 0.08900  0.17330  0.94180  Biso   1.000  O
  H21      1.0000 0.88310  0.91100  0.06410  Biso   1.000  H
  H22      1.0000 0.11690  0.08900  0.93590  Biso   1.000  H
  H23      1.0000 0.88920  0.83900  0.99270  Biso   1.000  H
  H24      1.0000 0.11080  0.16100  0.00730  Biso   1.000  H
  O19      1.0000 0.66190  0.80470  0.00350  Biso   1.000  O
  O20      1.0000 0.33810  0.19530  0.99650  Biso   1.000  O
  H25      1.0000 0.65390  0.72940  0.00120  Biso   1.000  H
  H26      1.0000 0.34610  0.27060  0.99880  Biso   1.000  H
  H27      1.0000 0.57550  0.86530  0.01150  Biso   1.000  H
  H28      1.0000 0.42450  0.13470  0.98850  Biso   1.000  H
  O21      1.0000 0.60860  0.09590  0.85510  Biso   1.000  O
  O22      1.0000 0.39140  0.90410  0.14490  Biso   1.000  O
  H29      1.0000 0.67970  0.12520  0.84340  Biso   1.000  H
  H30      1.0000 0.32030  0.87480  0.15660  Biso   1.000  H
  H31      1.0000 0.59870  0.09310  0.79100  Biso   1.000  H
  H32      1.0000 0.40130  0.90690  0.20900  Biso   1.000  H
