data_image0
_cell_length_a       9.7523
_cell_length_b       11.9583
_cell_length_c       12.2461
_cell_angle_alpha    61.809
_cell_angle_beta     78.172
_cell_angle_gamma    84.9511

_symmetry_space_group_name_H-M    "P 1"
_symmetry_int_tables_number       1

loop_
  _symmetry_equiv_pos_as_xyz
  'x, y, z'

loop_
  _atom_site_label
  _atom_site_occupancy
  _atom_site_fract_x
  _atom_site_fract_y
  _atom_site_fract_z
  _atom_site_thermal_displace_type
  _atom_site_B_iso_or_equiv
  _atom_site_type_symbol
  C1       1.0000 0.78100  0.74050  0.46060  Biso   1.000  C
  C2       1.0000 0.21900  0.25950  0.53940  Biso   1.000  C
  C3       1.0000 0.75140  0.85520  0.47990  Biso   1.000  C
  C4       1.0000 0.24860  0.14480  0.52010  Biso   1.000  C
  C5       1.0000 0.80000  0.97450  0.38080  Biso   1.000  C
  C6       1.0000 0.20000  0.02550  0.61920  Biso   1.000  C
  H1       1.0000 0.85570  0.97930  0.30730  Biso   1.000  H
  H2       1.0000 0.14430  0.02070  0.69270  Biso   1.000  H
  C7       1.0000 0.76710  0.08400  0.39030  Biso   1.000  C
  C8       1.0000 0.23290  0.91600  0.60970  Biso   1.000  C
  H3       1.0000 0.80000  0.16280  0.32530  Biso   1.000  H
  H4       1.0000 0.20000  0.83720  0.67470  Biso   1.000  H
  C9       1.0000 0.68150  0.07110  0.50240  Biso   1.000  C
  C10      1.0000 0.31850  0.92890  0.49760  Biso   1.000  C
  C11      1.0000 0.55200  0.09380  0.65920  Biso   1.000  C
  C12      1.0000 0.44800  0.90620  0.34080  Biso   1.000  C
  H5       1.0000 0.50280  0.13280  0.70540  Biso   1.000  H
  H6       1.0000 0.49720  0.86720  0.29460  Biso   1.000  H
  C13      1.0000 0.63840  0.95250  0.60360  Biso   1.000  C
  C14      1.0000 0.36160  0.04750  0.39640  Biso   1.000  C
  C15      1.0000 0.67230  0.84280  0.59250  Biso   1.000  C
  C16      1.0000 0.32770  0.15720  0.40750  Biso   1.000  C
  H7       1.0000 0.64270  0.76350  0.65870  Biso   1.000  H
  H8       1.0000 0.35730  0.23650  0.34130  Biso   1.000  H
  C17      1.0000 0.90180  0.30740  0.64070  Biso   1.000  C
  C18      1.0000 0.09820  0.69260  0.35930  Biso   1.000  C
  C19      1.0000 0.86740  0.20020  0.77020  Biso   1.000  C
  C20      1.0000 0.13260  0.79980  0.22980  Biso   1.000  C
  C21      1.0000 0.89710  0.20960  0.87380  Biso   1.000  C
  C22      1.0000 0.10290  0.79040  0.12620  Biso   1.000  C
  H9       1.0000 0.93850  0.28320  0.86040  Biso   1.000  H
  H10      1.0000 0.06150  0.71680  0.13960  Biso   1.000  H
  C23      1.0000 0.86550  0.11100  0.99420  Biso   1.000  C
  C24      1.0000 0.13450  0.88900  0.00580  Biso   1.000  C
  H11      1.0000 0.88780  0.11510  0.06250  Biso   1.000  H
  H12      1.0000 0.11220  0.88490  0.93750  Biso   1.000  H
  C25      1.0000 0.79880  0.00480  0.00960  Biso   1.000  C
  C26      1.0000 0.20120  0.99520  0.99040  Biso   1.000  C
  C27      1.0000 0.69780  0.82280  0.07450  Biso   1.000  C
  C28      1.0000 0.30220  0.17720  0.92550  Biso   1.000  C
  H13      1.0000 0.66230  0.74120  0.12830  Biso   1.000  H
  H14      1.0000 0.33770  0.25880  0.87170  Biso   1.000  H
  C29      1.0000 0.76360  0.99660  0.90900  Biso   1.000  C
  C30      1.0000 0.23640  0.00340  0.09100  Biso   1.000  C
  C31      1.0000 0.80300  0.09360  0.78650  Biso   1.000  C
  C32      1.0000 0.19700  0.90640  0.21350  Biso   1.000  C
  H15      1.0000 0.78650  0.08670  0.71770  Biso   1.000  H
  H16      1.0000 0.21350  0.91330  0.28230  Biso   1.000  H
  C33      1.0000 0.21210  0.52120  0.76780  Biso   1.000  C
  C34      1.0000 0.78790  0.47880  0.23220  Biso   1.000  C
  C35      1.0000 0.23900  0.52260  0.88270  Biso   1.000  C
  C36      1.0000 0.76100  0.47740  0.11730  Biso   1.000  C
  C37      1.0000 0.17080  0.43080  0.00220  Biso   1.000  C
  C38      1.0000 0.82920  0.56920  0.99780  Biso   1.000  C
  H17      1.0000 0.11010  0.37260  0.00630  Biso   1.000  H
  H18      1.0000 0.88990  0.62740  0.99370  Biso   1.000  H
  C39      1.0000 0.19130  0.42520  0.11240  Biso   1.000  C
  C40      1.0000 0.80870  0.57480  0.88760  Biso   1.000  C
  H19      1.0000 0.14650  0.36460  0.19090  Biso   1.000  H
  H20      1.0000 0.85350  0.63540  0.80910  Biso   1.000  H
  C41      1.0000 0.28290  0.51500  0.10010  Biso   1.000  C
  C42      1.0000 0.71710  0.48500  0.89990  Biso   1.000  C
  C43      1.0000 0.41070  0.63870  0.12600  Biso   1.000  C
  C44      1.0000 0.58930  0.36130  0.87400  Biso   1.000  C
  H21      1.0000 0.45170  0.67290  0.16610  Biso   1.000  H
  H22      1.0000 0.54830  0.32710  0.83390  Biso   1.000  H
  C45      1.0000 0.35080  0.60770  0.98290  Biso   1.000  C
  C46      1.0000 0.64920  0.39230  0.01710  Biso   1.000  C
  C47      1.0000 0.33020  0.61140  0.87230  Biso   1.000  C
  C48      1.0000 0.66980  0.38860  0.12770  Biso   1.000  C
  H23      1.0000 0.37590  0.67130  0.79390  Biso   1.000  H
  H24      1.0000 0.62410  0.32870  0.20610  Biso   1.000  H
  C49      1.0000 0.50550  0.44060  0.56330  Biso   1.000  C
  C50      1.0000 0.49450  0.55940  0.43670  Biso   1.000  C
  Cu1      1.0000 0.54179  0.83616  0.87925  Biso   1.000  Cu
  Cu2      1.0000 0.45821  0.16384  0.12075  Biso   1.000  Cu
  Dy1      1.0000 0.82334  0.51731  0.43135  Biso   1.000  Dy
  Dy2      1.0000 0.17666  0.48269  0.56865  Biso   1.000  Dy
  N1       1.0000 0.55860  0.96980  0.70300  Biso   1.000  N
  N2       1.0000 0.44140  0.03020  0.29700  Biso   1.000  N
  N3       1.0000 0.62400  0.15830  0.54090  Biso   1.000  N
  N4       1.0000 0.37600  0.84170  0.45910  Biso   1.000  N
  H25      1.0000 0.63230  0.23940  0.49740  Biso   1.000  H
  H26      1.0000 0.36770  0.76060  0.50260  Biso   1.000  H
  N5       1.0000 0.75630  0.89150  0.11430  Biso   1.000  N
  N6       1.0000 0.24370  0.10850  0.88570  Biso   1.000  N
  H27      1.0000 0.76540  0.86890  0.19030  Biso   1.000  H
  H28      1.0000 0.23460  0.13110  0.80970  Biso   1.000  H
  N7       1.0000 0.69520  0.88060  0.95350  Biso   1.000  N
  N8       1.0000 0.30480  0.11940  0.04650  Biso   1.000  N
  N9       1.0000 0.43240  0.68500  0.00270  Biso   1.000  N
  N10      1.0000 0.56760  0.31500  0.99730  Biso   1.000  N
  N11      1.0000 0.32420  0.53770  0.18860  Biso   1.000  N
  N12      1.0000 0.67580  0.46230  0.81140  Biso   1.000  N
  H29      1.0000 0.29920  0.49510  0.26910  Biso   1.000  H
  H30      1.0000 0.70080  0.50490  0.73090  Biso   1.000  H
  O1       1.0000 0.82770  0.75340  0.35083  Biso   1.000  O
  O2       1.0000 0.17230  0.24660  0.64917  Biso   1.000  O
  O3       1.0000 0.75760  0.63060  0.55260  Biso   1.000  O
  O4       1.0000 0.24240  0.36940  0.44740  Biso   1.000  O
  O5       1.0000 0.93790  0.41550  0.62640  Biso   1.000  O
  O6       1.0000 0.06210  0.58450  0.37360  Biso   1.000  O
  O7       1.0000 0.88730  0.29760  0.54650  Biso   1.000  O
  O8       1.0000 0.11270  0.70240  0.45350  Biso   1.000  O
  O9       1.0000 0.27000  0.60150  0.65960  Biso   1.000  O
  O10      1.0000 0.73000  0.39850  0.34040  Biso   1.000  O
  O11      1.0000 0.13110  0.43680  0.78090  Biso   1.000  O
  O12      1.0000 0.86890  0.56320  0.21910  Biso   1.000  O
  O13      1.0000 0.62560  0.40520  0.58650  Biso   1.000  O
  O14      1.0000 0.37440  0.59480  0.41350  Biso   1.000  O
  O15      1.0000 0.39330  0.38720  0.63340  Biso   1.000  O
  O16      1.0000 0.60670  0.61280  0.36660  Biso   1.000  O
