data_image0
_cell_length_a       9.879
_cell_length_b       11.941
_cell_length_c       12.257
_cell_angle_alpha    62.107
_cell_angle_beta     77.789
_cell_angle_gamma    84.983

_symmetry_space_group_name_H-M    "P 1"
_symmetry_int_tables_number       1

loop_
  _symmetry_equiv_pos_as_xyz
  'x, y, z'

loop_
  _atom_site_label
  _atom_site_occupancy
  _atom_site_fract_x
  _atom_site_fract_y
  _atom_site_fract_z
  _atom_site_thermal_displace_type
  _atom_site_B_iso_or_equiv
  _atom_site_type_symbol
  C1       1.0000 0.09920  0.69660  0.85740  Biso   1.000  C
  C2       1.0000 0.90080  0.30340  0.14260  Biso   1.000  C
  C3       1.0000 0.13280  0.80260  0.72810  Biso   1.000  C
  C4       1.0000 0.86720  0.19740  0.27190  Biso   1.000  C
  C5       1.0000 0.19690  0.90950  0.71110  Biso   1.000  C
  C6       1.0000 0.80310  0.09050  0.28890  Biso   1.000  C
  H1       1.0000 0.21360  0.91690  0.77940  Biso   1.000  H
  H2       1.0000 0.78640  0.08310  0.22060  Biso   1.000  H
  C7       1.0000 0.23560  0.00560  0.58890  Biso   1.000  C
  C8       1.0000 0.76440  0.99440  0.41110  Biso   1.000  C
  C9       1.0000 0.30110  0.17910  0.42370  Biso   1.000  C
  C10      1.0000 0.69890  0.82090  0.57630  Biso   1.000  C
  H3       1.0000 0.33690  0.26040  0.36980  Biso   1.000  H
  H4       1.0000 0.66310  0.73960  0.63020  Biso   1.000  H
  C11      1.0000 0.20030  0.99720  0.48910  Biso   1.000  C
  C12      1.0000 0.79970  0.00280  0.51090  Biso   1.000  C
  C13      1.0000 0.13450  0.89010  0.50560  Biso   1.000  C
  C14      1.0000 0.86550  0.10990  0.49440  Biso   1.000  C
  H5       1.0000 0.11210  0.88490  0.43810  Biso   1.000  H
  H6       1.0000 0.88790  0.11510  0.56190  Biso   1.000  H
  C15      1.0000 0.10420  0.79280  0.62590  Biso   1.000  C
  C16      1.0000 0.89580  0.20720  0.37410  Biso   1.000  C
  H7       1.0000 0.06370  0.71870  0.63970  Biso   1.000  H
  H8       1.0000 0.93630  0.28130  0.36030  Biso   1.000  H
  C17      1.0000 0.22200  0.25850  0.03910  Biso   1.000  C
  C18      1.0000 0.77800  0.74150  0.96090  Biso   1.000  C
  C19      1.0000 0.25240  0.14500  0.01920  Biso   1.000  C
  C20      1.0000 0.74760  0.85500  0.98080  Biso   1.000  C
  C21      1.0000 0.32980  0.15770  0.90500  Biso   1.000  C
  C22      1.0000 0.67020  0.84230  0.09500  Biso   1.000  C
  H9       1.0000 0.35750  0.23700  0.83850  Biso   1.000  H
  H10      1.0000 0.64250  0.76300  0.16150  Biso   1.000  H
  C23      1.0000 0.36420  0.04810  0.89370  Biso   1.000  C
  C24      1.0000 0.63580  0.95190  0.10630  Biso   1.000  C
  C25      1.0000 0.44700  0.90830  0.83510  Biso   1.000  C
  C26      1.0000 0.55300  0.09170  0.16490  Biso   1.000  C
  H11      1.0000 0.49380  0.87000  0.78730  Biso   1.000  H
  H12      1.0000 0.50620  0.13000  0.21270  Biso   1.000  H
  C27      1.0000 0.32280  0.92940  0.99420  Biso   1.000  C
  C28      1.0000 0.67720  0.07060  0.00580  Biso   1.000  C
  C29      1.0000 0.23980  0.91560  0.10700  Biso   1.000  C
  C30      1.0000 0.76020  0.08440  0.89300  Biso   1.000  C
  H13      1.0000 0.20830  0.83650  0.17190  Biso   1.000  H
  H14      1.0000 0.79170  0.16350  0.82810  Biso   1.000  H
  C31      1.0000 0.20710  0.02490  0.11720  Biso   1.000  C
  C32      1.0000 0.79290  0.97510  0.88280  Biso   1.000  C
  H15      1.0000 0.15300  0.01920  0.19170  Biso   1.000  H
  H16      1.0000 0.84700  0.98080  0.80830  Biso   1.000  H
  C33      1.0000 0.79060  0.47650  0.72700  Biso   1.000  C
  C34      1.0000 0.20940  0.52350  0.27300  Biso   1.000  C
  C35      1.0000 0.76130  0.47600  0.61280  Biso   1.000  C
  C36      1.0000 0.23870  0.52400  0.38720  Biso   1.000  C
  C37      1.0000 0.82820  0.56770  0.49420  Biso   1.000  C
  C38      1.0000 0.17180  0.43230  0.50580  Biso   1.000  C
  H17      1.0000 0.88890  0.62570  0.48970  Biso   1.000  H
  H18      1.0000 0.11110  0.37430  0.51030  Biso   1.000  H
  C39      1.0000 0.80590  0.57320  0.38510  Biso   1.000  C
  C40      1.0000 0.19410  0.42680  0.61490  Biso   1.000  C
  H19      1.0000 0.84960  0.63400  0.30660  Biso   1.000  H
  H20      1.0000 0.15040  0.36600  0.69340  Biso   1.000  H
  C41      1.0000 0.71510  0.48430  0.39730  Biso   1.000  C
  C42      1.0000 0.28490  0.51570  0.60270  Biso   1.000  C
  C43      1.0000 0.58560  0.36180  0.37190  Biso   1.000  C
  C44      1.0000 0.41440  0.63820  0.62810  Biso   1.000  C
  H21      1.0000 0.54440  0.32790  0.33220  Biso   1.000  H
  H22      1.0000 0.45560  0.67210  0.66780  Biso   1.000  H
  C45      1.0000 0.64750  0.39240  0.51380  Biso   1.000  C
  C46      1.0000 0.35250  0.60760  0.48620  Biso   1.000  C
  C47      1.0000 0.66970  0.38790  0.62360  Biso   1.000  C
  C48      1.0000 0.33030  0.61210  0.37640  Biso   1.000  C
  H23      1.0000 0.62470  0.32790  0.70200  Biso   1.000  H
  H24      1.0000 0.37530  0.67210  0.29800  Biso   1.000  H
  C49      1.0000 0.49540  0.55940  0.93690  Biso   1.000  C
  C50      1.0000 0.50460  0.44060  0.06310  Biso   1.000  C
  Cu1      1.0000 0.45639  0.16504  0.61782  Biso   1.000  Cu
  Cu2      1.0000 0.54361  0.83496  0.38218  Biso   1.000  Cu
  N1       1.0000 0.30340  0.12160  0.54430  Biso   1.000  N
  N2       1.0000 0.69660  0.87840  0.45570  Biso   1.000  N
  N3       1.0000 0.24250  0.11000  0.38510  Biso   1.000  N
  N4       1.0000 0.75750  0.89000  0.61490  Biso   1.000  N
  H25      1.0000 0.23320  0.13230  0.30950  Biso   1.000  H
  H26      1.0000 0.76680  0.86770  0.69050  Biso   1.000  H
  N5       1.0000 0.44110  0.03160  0.79270  Biso   1.000  N
  N6       1.0000 0.55890  0.96840  0.20730  Biso   1.000  N
  N7       1.0000 0.37910  0.84320  0.95380  Biso   1.000  N
  N8       1.0000 0.62090  0.15680  0.04620  Biso   1.000  N
  H27      1.0000 0.37210  0.76200  0.99680  Biso   1.000  H
  H28      1.0000 0.62790  0.23800  0.00320  Biso   1.000  H
  N9       1.0000 0.67160  0.46280  0.30940  Biso   1.000  N
  N10      1.0000 0.32840  0.53720  0.69060  Biso   1.000  N
  H29      1.0000 0.69510  0.50610  0.22900  Biso   1.000  H
  H30      1.0000 0.30490  0.49390  0.77100  Biso   1.000  H
  N11      1.0000 0.56540  0.31560  0.49460  Biso   1.000  N
  N12      1.0000 0.43460  0.68440  0.50540  Biso   1.000  N
  O1       1.0000 0.11300  0.70840  0.95046  Biso   1.000  O
  O2       1.0000 0.88700  0.29160  0.04954  Biso   1.000  O
  O3       1.0000 0.06390  0.58745  0.87311  Biso   1.000  O
  O4       1.0000 0.93610  0.41255  0.12689  Biso   1.000  O
  O5       1.0000 0.24390  0.36840  0.94750  Biso   1.000  O
  O6       1.0000 0.75610  0.63160  0.05250  Biso   1.000  O
  O7       1.0000 0.17420  0.24566  0.14851  Biso   1.000  O
  O8       1.0000 0.82580  0.75434  0.85149  Biso   1.000  O
  O9       1.0000 0.86990  0.56170  0.71290  Biso   1.000  O
  O10      1.0000 0.13010  0.43830  0.28710  Biso   1.000  O
  O11      1.0000 0.73540  0.39500  0.83490  Biso   1.000  O
  O12      1.0000 0.26460  0.60500  0.16510  Biso   1.000  O
  O13      1.0000 0.60640  0.61030  0.86542  Biso   1.000  O
  O14      1.0000 0.39360  0.38970  0.13458  Biso   1.000  O
  O15      1.0000 0.37670  0.59710  0.91564  Biso   1.000  O
  O16      1.0000 0.62330  0.40290  0.08436  Biso   1.000  O
  Sm1      1.0000 0.17427  0.48492  0.07116  Biso   1.000  Sm
  Sm2      1.0000 0.82573  0.51508  0.92884  Biso   1.000  Sm
