data_image0
_cell_length_a       10.2203
_cell_length_b       14.6547
_cell_length_c       26.5585
_cell_angle_alpha    90
_cell_angle_beta     97.269
_cell_angle_gamma    90

_symmetry_space_group_name_H-M    "P 1"
_symmetry_int_tables_number       1

loop_
  _symmetry_equiv_pos_as_xyz
  'x, y, z'

loop_
  _atom_site_label
  _atom_site_occupancy
  _atom_site_fract_x
  _atom_site_fract_y
  _atom_site_fract_z
  _atom_site_thermal_displace_type
  _atom_site_B_iso_or_equiv
  _atom_site_type_symbol
  Cu1      1.0000 0.99059  0.34729  0.19941  Biso   1.000  Cu
  Cu2      1.0000 0.50941  0.84729  0.30059  Biso   1.000  Cu
  Cu3      1.0000 0.00941  0.65271  0.80059  Biso   1.000  Cu
  Cu4      1.0000 0.49059  0.15271  0.69941  Biso   1.000  Cu
  P1       1.0000 0.78227  0.35139  0.22402  Biso   1.000  P
  P2       1.0000 0.71773  0.85139  0.27598  Biso   1.000  P
  P3       1.0000 0.21773  0.64861  0.77598  Biso   1.000  P
  P4       1.0000 0.28227  0.14861  0.72402  Biso   1.000  P
  P5       1.0000 0.99922  0.39239  0.11679  Biso   1.000  P
  P6       1.0000 0.50078  0.89239  0.38321  Biso   1.000  P
  P7       1.0000 0.00078  0.60761  0.88321  Biso   1.000  P
  P8       1.0000 0.49922  0.10761  0.61679  Biso   1.000  P
  N1       1.0000 0.09050  0.22483  0.21835  Biso   1.000  N
  N2       1.0000 0.40950  0.72483  0.28165  Biso   1.000  N
  N3       1.0000 0.90950  0.77517  0.78165  Biso   1.000  N
  N4       1.0000 0.59050  0.27517  0.71835  Biso   1.000  N
  N5       1.0000 0.38830  0.94778  0.25748  Biso   1.000  N
  N6       1.0000 0.11170  0.44778  0.24252  Biso   1.000  N
  N7       1.0000 0.61170  0.05222  0.74252  Biso   1.000  N
  N8       1.0000 0.88830  0.55222  0.75748  Biso   1.000  N
  H1       1.0000 0.42950  0.00120  0.26190  Biso   1.000  H
  H2       1.0000 0.07050  0.50120  0.23810  Biso   1.000  H
  H3       1.0000 0.57050  0.99880  0.73810  Biso   1.000  H
  H4       1.0000 0.92950  0.49880  0.76190  Biso   1.000  H
  H5       1.0000 0.38580  0.93340  0.22480  Biso   1.000  H
  H6       1.0000 0.11420  0.43340  0.27520  Biso   1.000  H
  H7       1.0000 0.61420  0.06660  0.77520  Biso   1.000  H
  H8       1.0000 0.88580  0.56660  0.72480  Biso   1.000  H
  C1       1.0000 0.08590  0.15346  0.18668  Biso   1.000  C
  C2       1.0000 0.41410  0.65346  0.31332  Biso   1.000  C
  C3       1.0000 0.91410  0.84654  0.81332  Biso   1.000  C
  C4       1.0000 0.58590  0.34654  0.68668  Biso   1.000  C
  H9       1.0000 0.04690  0.16190  0.15340  Biso   1.000  H
  H10      1.0000 0.45310  0.66190  0.34660  Biso   1.000  H
  H11      1.0000 0.95310  0.83810  0.84660  Biso   1.000  H
  H12      1.0000 0.54690  0.33810  0.65340  Biso   1.000  H
  C5       1.0000 0.13530  0.06809  0.20032  Biso   1.000  C
  C6       1.0000 0.36470  0.56809  0.29968  Biso   1.000  C
  C7       1.0000 0.86470  0.93191  0.79968  Biso   1.000  C
  C8       1.0000 0.63530  0.43191  0.70032  Biso   1.000  C
  H13      1.0000 0.12920  0.02100  0.17670  Biso   1.000  H
  H14      1.0000 0.37080  0.52100  0.32330  Biso   1.000  H
  H15      1.0000 0.87080  0.97900  0.82330  Biso   1.000  H
  H16      1.0000 0.62920  0.47900  0.67670  Biso   1.000  H
  C9       1.0000 0.19430  0.05315  0.24958  Biso   1.000  C
  C10      1.0000 0.30570  0.55315  0.25042  Biso   1.000  C
  C11      1.0000 0.80570  0.94685  0.75042  Biso   1.000  C
  C12      1.0000 0.69430  0.44685  0.74958  Biso   1.000  C
  C13      1.0000 0.20290  0.12730  0.28206  Biso   1.000  C
  C14      1.0000 0.29710  0.62730  0.21794  Biso   1.000  C
  C15      1.0000 0.79710  0.87270  0.71794  Biso   1.000  C
  C16      1.0000 0.70290  0.37270  0.78206  Biso   1.000  C
  H17      1.0000 0.24370  0.12090  0.31520  Biso   1.000  H
  H18      1.0000 0.25630  0.62090  0.18480  Biso   1.000  H
  H19      1.0000 0.75630  0.87910  0.68480  Biso   1.000  H
  H20      1.0000 0.74370  0.37910  0.81520  Biso   1.000  H
  C17      1.0000 0.15140  0.21057  0.26554  Biso   1.000  C
  C18      1.0000 0.34860  0.71057  0.23446  Biso   1.000  C
  C19      1.0000 0.84860  0.78943  0.73446  Biso   1.000  C
  C20      1.0000 0.65140  0.28943  0.76554  Biso   1.000  C
  H21      1.0000 0.15910  0.25930  0.28820  Biso   1.000  H
  H22      1.0000 0.34090  0.75930  0.21180  Biso   1.000  H
  H23      1.0000 0.84090  0.74070  0.71180  Biso   1.000  H
  H24      1.0000 0.65910  0.24070  0.78820  Biso   1.000  H
  C21      1.0000 0.25130  0.96164  0.26758  Biso   1.000  C
  C22      1.0000 0.24870  0.46164  0.23242  Biso   1.000  C
  C23      1.0000 0.74870  0.03836  0.73242  Biso   1.000  C
  C24      1.0000 0.75130  0.53836  0.76758  Biso   1.000  C
  H25      1.0000 0.24800  0.95640  0.30380  Biso   1.000  H
  H26      1.0000 0.25200  0.45640  0.19620  Biso   1.000  H
  H27      1.0000 0.75200  0.04360  0.69620  Biso   1.000  H
  H28      1.0000 0.74800  0.54360  0.80380  Biso   1.000  H
  H29      1.0000 0.19670  0.91360  0.25100  Biso   1.000  H
  H30      1.0000 0.30330  0.41360  0.24900  Biso   1.000  H
  H31      1.0000 0.80330  0.08640  0.74900  Biso   1.000  H
  H32      1.0000 0.69670  0.58640  0.75100  Biso   1.000  H
  C25      1.0000 0.76410  0.36758  0.29123  Biso   1.000  C
  C26      1.0000 0.73590  0.86758  0.20877  Biso   1.000  C
  C27      1.0000 0.23590  0.63242  0.70877  Biso   1.000  C
  C28      1.0000 0.26410  0.13242  0.79123  Biso   1.000  C
  C29      1.0000 0.64790  0.40040  0.30770  Biso   1.000  C
  C30      1.0000 0.85210  0.90040  0.19230  Biso   1.000  C
  C31      1.0000 0.35210  0.59960  0.69230  Biso   1.000  C
  C32      1.0000 0.14790  0.09960  0.80770  Biso   1.000  C
  H33      1.0000 0.57720  0.41720  0.28400  Biso   1.000  H
  H34      1.0000 0.92280  0.91720  0.21600  Biso   1.000  H
  H35      1.0000 0.42280  0.58280  0.71600  Biso   1.000  H
  H36      1.0000 0.07720  0.08280  0.78400  Biso   1.000  H
  C33      1.0000 0.63760  0.40780  0.35907  Biso   1.000  C
  C34      1.0000 0.86240  0.90780  0.14093  Biso   1.000  C
  C35      1.0000 0.36240  0.59220  0.64093  Biso   1.000  C
  C36      1.0000 0.13760  0.09220  0.85907  Biso   1.000  C
  H37      1.0000 0.55990  0.42900  0.36980  Biso   1.000  H
  H38      1.0000 0.94010  0.92900  0.13020  Biso   1.000  H
  H39      1.0000 0.44010  0.57100  0.63020  Biso   1.000  H
  H40      1.0000 0.05990  0.07100  0.86980  Biso   1.000  H
  C37      1.0000 0.74210  0.38410  0.39404  Biso   1.000  C
  C38      1.0000 0.75790  0.88410  0.10596  Biso   1.000  C
  C39      1.0000 0.25790  0.61590  0.60596  Biso   1.000  C
  C40      1.0000 0.24210  0.11590  0.89404  Biso   1.000  C
  H41      1.0000 0.73490  0.38950  0.42850  Biso   1.000  H
  H42      1.0000 0.76510  0.88950  0.07150  Biso   1.000  H
  H43      1.0000 0.26510  0.61050  0.57150  Biso   1.000  H
  H44      1.0000 0.23490  0.11050  0.92850  Biso   1.000  H
  C41      1.0000 0.85680  0.35250  0.37906  Biso   1.000  C
  C42      1.0000 0.64320  0.85250  0.12094  Biso   1.000  C
  C43      1.0000 0.14320  0.64750  0.62094  Biso   1.000  C
  C44      1.0000 0.35680  0.14750  0.87906  Biso   1.000  C
  H45      1.0000 0.92690  0.33620  0.40320  Biso   1.000  H
  H46      1.0000 0.57310  0.83620  0.09680  Biso   1.000  H
  H47      1.0000 0.07310  0.66380  0.59680  Biso   1.000  H
  H48      1.0000 0.42690  0.16380  0.90320  Biso   1.000  H
  C45      1.0000 0.86840  0.34472  0.32705  Biso   1.000  C
  C46      1.0000 0.63160  0.84472  0.17295  Biso   1.000  C
  C47      1.0000 0.13160  0.65528  0.67295  Biso   1.000  C
  C48      1.0000 0.36840  0.15528  0.82705  Biso   1.000  C
  H49      1.0000 0.94690  0.32410  0.31680  Biso   1.000  H
  H50      1.0000 0.55310  0.82410  0.18320  Biso   1.000  H
  H51      1.0000 0.05310  0.67590  0.68320  Biso   1.000  H
  H52      1.0000 0.44690  0.17590  0.81680  Biso   1.000  H
  C49      1.0000 0.68320  0.24994  0.20559  Biso   1.000  C
  C50      1.0000 0.81680  0.74994  0.29441  Biso   1.000  C
  C51      1.0000 0.31680  0.75006  0.79441  Biso   1.000  C
  C52      1.0000 0.18320  0.25006  0.70559  Biso   1.000  C
  C53      1.0000 0.55920  0.23490  0.22038  Biso   1.000  C
  C54      1.0000 0.94080  0.73490  0.27962  Biso   1.000  C
  C55      1.0000 0.44080  0.76510  0.77962  Biso   1.000  C
  C56      1.0000 0.05920  0.26510  0.72038  Biso   1.000  C
  H53      1.0000 0.52660  0.27480  0.24300  Biso   1.000  H
  H54      1.0000 0.97340  0.77480  0.25700  Biso   1.000  H
  H55      1.0000 0.47340  0.72520  0.75700  Biso   1.000  H
  H56      1.0000 0.02660  0.22520  0.74300  Biso   1.000  H
  C57      1.0000 0.48420  0.16100  0.20179  Biso   1.000  C
  C58      1.0000 0.01580  0.66100  0.29821  Biso   1.000  C
  C59      1.0000 0.51580  0.83900  0.79821  Biso   1.000  C
  C60      1.0000 0.98420  0.33900  0.70179  Biso   1.000  C
  H57      1.0000 0.40130  0.15180  0.21190  Biso   1.000  H
  H58      1.0000 0.09870  0.65180  0.28810  Biso   1.000  H
  H59      1.0000 0.59870  0.84820  0.78810  Biso   1.000  H
  H60      1.0000 0.90130  0.34820  0.71190  Biso   1.000  H
  C61      1.0000 0.53070  0.10120  0.16865  Biso   1.000  C
  C62      1.0000 0.96930  0.60120  0.33135  Biso   1.000  C
  C63      1.0000 0.46930  0.89880  0.83135  Biso   1.000  C
  C64      1.0000 0.03070  0.39880  0.66865  Biso   1.000  C
  H61      1.0000 0.47930  0.05200  0.15600  Biso   1.000  H
  H62      1.0000 0.02070  0.55200  0.34400  Biso   1.000  H
  H63      1.0000 0.52070  0.94800  0.84400  Biso   1.000  H
  H64      1.0000 0.97930  0.44800  0.65600  Biso   1.000  H
  C65      1.0000 0.65330  0.11430  0.15431  Biso   1.000  C
  C66      1.0000 0.84670  0.61430  0.34569  Biso   1.000  C
  C67      1.0000 0.34670  0.88570  0.84569  Biso   1.000  C
  C68      1.0000 0.15330  0.38570  0.65431  Biso   1.000  C
  H65      1.0000 0.68580  0.07340  0.13220  Biso   1.000  H
  H66      1.0000 0.81420  0.57340  0.36780  Biso   1.000  H
  H67      1.0000 0.31420  0.92660  0.86780  Biso   1.000  H
  H68      1.0000 0.18580  0.42660  0.63220  Biso   1.000  H
  C69      1.0000 0.72890  0.18820  0.17267  Biso   1.000  C
  C70      1.0000 0.77110  0.68820  0.32733  Biso   1.000  C
  C71      1.0000 0.27110  0.81180  0.82733  Biso   1.000  C
  C72      1.0000 0.22890  0.31180  0.67267  Biso   1.000  C
  H69      1.0000 0.81210  0.19640  0.16270  Biso   1.000  H
  H70      1.0000 0.68790  0.69640  0.33730  Biso   1.000  H
  H71      1.0000 0.18790  0.80360  0.83730  Biso   1.000  H
  H72      1.0000 0.31210  0.30360  0.66270  Biso   1.000  H
  C73      1.0000 0.67870  0.44282  0.19388  Biso   1.000  C
  C74      1.0000 0.82130  0.94282  0.30612  Biso   1.000  C
  C75      1.0000 0.32130  0.55718  0.80612  Biso   1.000  C
  C76      1.0000 0.17870  0.05718  0.69388  Biso   1.000  C
  C77      1.0000 0.59100  0.42900  0.15046  Biso   1.000  C
  C78      1.0000 0.90900  0.92900  0.34954  Biso   1.000  C
  C79      1.0000 0.40900  0.57100  0.84954  Biso   1.000  C
  C80      1.0000 0.09100  0.07100  0.65046  Biso   1.000  C
  H73      1.0000 0.57800  0.37050  0.13710  Biso   1.000  H
  H74      1.0000 0.92200  0.87050  0.36290  Biso   1.000  H
  H75      1.0000 0.42200  0.62950  0.86290  Biso   1.000  H
  H76      1.0000 0.07800  0.12950  0.63710  Biso   1.000  H
  C81      1.0000 0.52220  0.50220  0.12664  Biso   1.000  C
  C82      1.0000 0.97780  0.00220  0.37336  Biso   1.000  C
  C83      1.0000 0.47780  0.49780  0.87336  Biso   1.000  C
  C84      1.0000 0.02220  0.99780  0.62664  Biso   1.000  C
  H77      1.0000 0.46320  0.49220  0.09750  Biso   1.000  H
  H78      1.0000 0.03680  0.99220  0.40250  Biso   1.000  H
  H79      1.0000 0.53680  0.50780  0.90250  Biso   1.000  H
  H80      1.0000 0.96320  0.00780  0.59750  Biso   1.000  H
  C85      1.0000 0.54040  0.58860  0.14559  Biso   1.000  C
  C86      1.0000 0.95960  0.08860  0.35441  Biso   1.000  C
  C87      1.0000 0.45960  0.41140  0.85441  Biso   1.000  C
  C88      1.0000 0.04040  0.91140  0.64559  Biso   1.000  C
  H81      1.0000 0.49450  0.63730  0.12930  Biso   1.000  H
  H82      1.0000 0.00550  0.13730  0.37070  Biso   1.000  H
  H83      1.0000 0.50550  0.36270  0.87070  Biso   1.000  H
  H84      1.0000 0.99450  0.86270  0.62930  Biso   1.000  H
  C89      1.0000 0.62700  0.60320  0.18889  Biso   1.000  C
  C90      1.0000 0.87300  0.10320  0.31111  Biso   1.000  C
  C91      1.0000 0.37300  0.39680  0.81111  Biso   1.000  C
  C92      1.0000 0.12700  0.89680  0.68889  Biso   1.000  C
  H85      1.0000 0.63900  0.66180  0.20210  Biso   1.000  H
  H86      1.0000 0.86100  0.16180  0.29790  Biso   1.000  H
  H87      1.0000 0.36100  0.33820  0.79790  Biso   1.000  H
  H88      1.0000 0.13900  0.83820  0.70210  Biso   1.000  H
  C93      1.0000 0.69580  0.53141  0.21260  Biso   1.000  C
  C94      1.0000 0.80420  0.03141  0.28740  Biso   1.000  C
  C95      1.0000 0.30420  0.46859  0.78740  Biso   1.000  C
  C96      1.0000 0.19580  0.96859  0.71260  Biso   1.000  C
  H89      1.0000 0.75480  0.54210  0.24160  Biso   1.000  H
  H90      1.0000 0.74520  0.04210  0.25840  Biso   1.000  H
  H91      1.0000 0.24520  0.45790  0.75840  Biso   1.000  H
  H92      1.0000 0.25480  0.95790  0.74160  Biso   1.000  H
  C97      1.0000 0.12180  0.34038  0.08121  Biso   1.000  C
  C98      1.0000 0.37820  0.84038  0.41879  Biso   1.000  C
  C99      1.0000 0.87820  0.65962  0.91879  Biso   1.000  C
  C100     1.0000 0.62180  0.15962  0.58121  Biso   1.000  C
  C101     1.0000 0.10490  0.33550  0.02865  Biso   1.000  C
  C102     1.0000 0.39510  0.83550  0.47135  Biso   1.000  C
  C103     1.0000 0.89510  0.66450  0.97135  Biso   1.000  C
  C104     1.0000 0.60490  0.16450  0.52865  Biso   1.000  C
  H93      1.0000 0.02990  0.36070  0.01040  Biso   1.000  H
  H94      1.0000 0.47010  0.86070  0.48960  Biso   1.000  H
  H95      1.0000 0.97010  0.63930  0.98960  Biso   1.000  H
  H96      1.0000 0.52990  0.13930  0.51040  Biso   1.000  H
  C105     1.0000 0.19810  0.29370  0.00292  Biso   1.000  C
  C106     1.0000 0.30190  0.79370  0.49708  Biso   1.000  C
  C107     1.0000 0.80190  0.70630  0.99708  Biso   1.000  C
  C108     1.0000 0.69810  0.20630  0.50292  Biso   1.000  C
  H97      1.0000 0.18590  0.29140  0.96760  Biso   1.000  H
  H98      1.0000 0.31410  0.79140  0.53240  Biso   1.000  H
  H99      1.0000 0.81410  0.70860  0.03240  Biso   1.000  H
  H100     1.0000 0.68590  0.20860  0.46760  Biso   1.000  H
  C109     1.0000 0.30870  0.25550  0.02960  Biso   1.000  C
  C110     1.0000 0.19130  0.75550  0.47040  Biso   1.000  C
  C111     1.0000 0.69130  0.74450  0.97040  Biso   1.000  C
  C112     1.0000 0.80870  0.24450  0.52960  Biso   1.000  C
  H101     1.0000 0.36990  0.22530  0.01250  Biso   1.000  H
  H102     1.0000 0.13010  0.72530  0.48750  Biso   1.000  H
  H103     1.0000 0.63010  0.77470  0.98750  Biso   1.000  H
  H104     1.0000 0.86990  0.27470  0.51250  Biso   1.000  H
  C113     1.0000 0.32860  0.26190  0.08155  Biso   1.000  C
  C114     1.0000 0.17140  0.76190  0.41845  Biso   1.000  C
  C115     1.0000 0.67140  0.73810  0.91845  Biso   1.000  C
  C116     1.0000 0.82860  0.23810  0.58155  Biso   1.000  C
  H105     1.0000 0.40510  0.23820  0.09950  Biso   1.000  H
  H106     1.0000 0.09490  0.73820  0.40050  Biso   1.000  H
  H107     1.0000 0.59490  0.76180  0.90050  Biso   1.000  H
  H108     1.0000 0.90510  0.26180  0.59950  Biso   1.000  H
  C117     1.0000 0.23570  0.30350  0.10740  Biso   1.000  C
  C118     1.0000 0.26430  0.80350  0.39260  Biso   1.000  C
  C119     1.0000 0.76430  0.69650  0.89260  Biso   1.000  C
  C120     1.0000 0.73570  0.19650  0.60740  Biso   1.000  C
  H109     1.0000 0.24960  0.30680  0.14260  Biso   1.000  H
  H110     1.0000 0.25040  0.80680  0.35740  Biso   1.000  H
  H111     1.0000 0.75040  0.69320  0.85740  Biso   1.000  H
  H112     1.0000 0.74960  0.19320  0.64260  Biso   1.000  H
  C121     1.0000 0.84850  0.38230  0.07190  Biso   1.000  C
  C122     1.0000 0.65150  0.88230  0.42810  Biso   1.000  C
  C123     1.0000 0.15150  0.61770  0.92810  Biso   1.000  C
  C124     1.0000 0.34850  0.11770  0.57190  Biso   1.000  C
  C125     1.0000 0.79760  0.29610  0.06148  Biso   1.000  C
  C126     1.0000 0.70240  0.79610  0.43852  Biso   1.000  C
  C127     1.0000 0.20240  0.70390  0.93852  Biso   1.000  C
  C128     1.0000 0.29760  0.20390  0.56148  Biso   1.000  C
  H113     1.0000 0.84030  0.24520  0.07670  Biso   1.000  H
  H114     1.0000 0.65970  0.74520  0.42330  Biso   1.000  H
  H115     1.0000 0.15970  0.75480  0.92330  Biso   1.000  H
  H116     1.0000 0.34030  0.25480  0.57670  Biso   1.000  H
  C129     1.0000 0.68190  0.28550  0.02800  Biso   1.000  C
  C130     1.0000 0.81810  0.78550  0.47200  Biso   1.000  C
  C131     1.0000 0.31810  0.71450  0.97200  Biso   1.000  C
  C132     1.0000 0.18190  0.21450  0.52800  Biso   1.000  C
  H117     1.0000 0.64770  0.22740  0.02090  Biso   1.000  H
  H118     1.0000 0.85230  0.72740  0.47910  Biso   1.000  H
  H119     1.0000 0.35230  0.77260  0.97910  Biso   1.000  H
  H120     1.0000 0.14770  0.27260  0.52090  Biso   1.000  H
  C133     1.0000 0.61780  0.36110  0.00528  Biso   1.000  C
  C134     1.0000 0.88220  0.86110  0.49472  Biso   1.000  C
  C135     1.0000 0.38220  0.63890  0.99472  Biso   1.000  C
  C136     1.0000 0.11780  0.13890  0.50528  Biso   1.000  C
  H121     1.0000 0.54030  0.35400  0.98320  Biso   1.000  H
  H122     1.0000 0.95970  0.85400  0.51680  Biso   1.000  H
  H123     1.0000 0.45970  0.64600  0.01680  Biso   1.000  H
  H124     1.0000 0.04030  0.14600  0.48320  Biso   1.000  H
  C137     1.0000 0.66860  0.44540  0.01543  Biso   1.000  C
  C138     1.0000 0.83140  0.94540  0.48457  Biso   1.000  C
  C139     1.0000 0.33140  0.55460  0.98457  Biso   1.000  C
  C140     1.0000 0.16860  0.05460  0.51543  Biso   1.000  C
  H125     1.0000 0.62620  0.49620  0.00000  Biso   1.000  H
  H126     1.0000 0.87380  0.99620  0.50000  Biso   1.000  H
  H127     1.0000 0.37380  0.50380  0.00000  Biso   1.000  H
  H128     1.0000 0.12620  0.00380  0.50000  Biso   1.000  H
  C141     1.0000 0.78260  0.45660  0.04846  Biso   1.000  C
  C142     1.0000 0.71740  0.95660  0.45154  Biso   1.000  C
  C143     1.0000 0.21740  0.54340  0.95154  Biso   1.000  C
  C144     1.0000 0.28260  0.04340  0.54846  Biso   1.000  C
  H129     1.0000 0.81600  0.51500  0.05520  Biso   1.000  H
  H130     1.0000 0.68400  0.01500  0.44480  Biso   1.000  H
  H131     1.0000 0.18400  0.48500  0.94480  Biso   1.000  H
  H132     1.0000 0.31600  0.98500  0.55520  Biso   1.000  H
  C145     1.0000 0.03300  0.51478  0.11475  Biso   1.000  C
  C146     1.0000 0.46700  0.01478  0.38525  Biso   1.000  C
  C147     1.0000 0.96700  0.48522  0.88525  Biso   1.000  C
  C148     1.0000 0.53300  0.98522  0.61475  Biso   1.000  C
  C149     1.0000 0.12320  0.55460  0.08688  Biso   1.000  C
  C150     1.0000 0.37680  0.05460  0.41312  Biso   1.000  C
  C151     1.0000 0.87680  0.44540  0.91312  Biso   1.000  C
  C152     1.0000 0.62320  0.94540  0.58688  Biso   1.000  C
  H133     1.0000 0.17490  0.51800  0.06870  Biso   1.000  H
  H134     1.0000 0.32510  0.01800  0.43130  Biso   1.000  H
  H135     1.0000 0.82510  0.48200  0.93130  Biso   1.000  H
  H136     1.0000 0.67490  0.98200  0.56870  Biso   1.000  H
  C153     1.0000 0.13690  0.64810  0.08588  Biso   1.000  C
  C154     1.0000 0.36310  0.14810  0.41412  Biso   1.000  C
  C155     1.0000 0.86310  0.35190  0.91412  Biso   1.000  C
  C156     1.0000 0.63690  0.85190  0.58588  Biso   1.000  C
  H137     1.0000 0.19880  0.67400  0.06730  Biso   1.000  H
  H138     1.0000 0.30120  0.17400  0.43270  Biso   1.000  H
  H139     1.0000 0.80120  0.32600  0.93270  Biso   1.000  H
  H140     1.0000 0.69880  0.82600  0.56730  Biso   1.000  H
  C157     1.0000 0.06040  0.70370  0.11191  Biso   1.000  C
  C158     1.0000 0.43960  0.20370  0.38809  Biso   1.000  C
  C159     1.0000 0.93960  0.29630  0.88809  Biso   1.000  C
  C160     1.0000 0.56040  0.79630  0.61191  Biso   1.000  C
  H141     1.0000 0.07010  0.76670  0.11070  Biso   1.000  H
  H142     1.0000 0.42990  0.26670  0.38930  Biso   1.000  H
  H143     1.0000 0.92990  0.23330  0.88930  Biso   1.000  H
  H144     1.0000 0.57010  0.73330  0.61070  Biso   1.000  H
  C161     1.0000 0.96950  0.66550  0.13970  Biso   1.000  C
  C162     1.0000 0.53050  0.16550  0.36030  Biso   1.000  C
  C163     1.0000 0.03050  0.33450  0.86030  Biso   1.000  C
  C164     1.0000 0.46950  0.83450  0.63970  Biso   1.000  C
  H145     1.0000 0.91680  0.70280  0.15710  Biso   1.000  H
  H146     1.0000 0.58320  0.20280  0.34290  Biso   1.000  H
  H147     1.0000 0.08320  0.29720  0.84290  Biso   1.000  H
  H148     1.0000 0.41680  0.79720  0.65710  Biso   1.000  H
  C165     1.0000 0.95660  0.57190  0.14175  Biso   1.000  C
  C166     1.0000 0.54340  0.07190  0.35825  Biso   1.000  C
  C167     1.0000 0.04340  0.42810  0.85825  Biso   1.000  C
  C168     1.0000 0.45660  0.92810  0.64175  Biso   1.000  C
  H149     1.0000 0.89650  0.54640  0.16120  Biso   1.000  H
  H150     1.0000 0.60350  0.04640  0.33880  Biso   1.000  H
  H151     1.0000 0.10350  0.45360  0.83880  Biso   1.000  H
  H152     1.0000 0.39650  0.95360  0.66120  Biso   1.000  H
  O1       1.0000 0.21130  0.38960  0.34771  Biso   1.000  O
  O2       1.0000 0.28870  0.88960  0.15229  Biso   1.000  O
  O3       1.0000 0.78870  0.61040  0.65229  Biso   1.000  O
  O4       1.0000 0.71130  0.11040  0.84771  Biso   1.000  O
  N9       1.0000 0.21630  0.39510  0.39028  Biso   1.000  N
  N10      1.0000 0.28370  0.89510  0.10972  Biso   1.000  N
  N11      1.0000 0.78370  0.60490  0.60972  Biso   1.000  N
  N12      1.0000 0.71630  0.10490  0.89028  Biso   1.000  N
  O5       1.0000 0.19740  0.47560  0.40610  Biso   1.000  O
  O6       1.0000 0.30260  0.97560  0.09390  Biso   1.000  O
  O7       1.0000 0.80260  0.52440  0.59390  Biso   1.000  O
  O8       1.0000 0.69740  0.02440  0.90610  Biso   1.000  O
  O9       1.0000 0.16200  0.31700  0.40370  Biso   1.000  O
  O10      1.0000 0.33800  0.81700  0.09630  Biso   1.000  O
  O11      1.0000 0.83800  0.68300  0.59630  Biso   1.000  O
  O12      1.0000 0.66200  0.18300  0.90370  Biso   1.000  O
  O13      1.0000 0.92900  0.07770  0.05350  Biso   1.000  O
  O14      1.0000 0.57100  0.57770  0.44650  Biso   1.000  O
  O15      1.0000 0.07100  0.92230  0.94650  Biso   1.000  O
  O16      1.0000 0.42900  0.42230  0.55350  Biso   1.000  O
  H153     1.0000 0.98110  0.04640  0.07440  Biso   1.000  H
  H154     1.0000 0.51890  0.54640  0.42560  Biso   1.000  H
  H155     1.0000 0.01890  0.95360  0.92560  Biso   1.000  H
  H156     1.0000 0.48110  0.45360  0.57440  Biso   1.000  H
  H157     1.0000 0.97290  0.10210  0.03180  Biso   1.000  H
  H158     1.0000 0.52710  0.60210  0.46820  Biso   1.000  H
  H159     1.0000 0.02710  0.89790  0.96820  Biso   1.000  H
  H160     1.0000 0.47290  0.39790  0.53180  Biso   1.000  H
  O17      1.0000 0.33260  0.43310  0.40970  Biso   1.000  O
  O18      1.0000 0.16740  0.93310  0.09030  Biso   1.000  O
  O19      1.0000 0.66740  0.56690  0.59030  Biso   1.000  O
  O20      1.0000 0.83260  0.06690  0.90970  Biso   1.000  O
  O21      1.0000 0.21400  0.36580  0.42830  Biso   1.000  O
  O22      1.0000 0.28600  0.86580  0.07170  Biso   1.000  O
  O23      1.0000 0.78600  0.63420  0.57170  Biso   1.000  O
  O24      1.0000 0.71400  0.13420  0.92830  Biso   1.000  O
