data_image0
_cell_length_a       10.0074
_cell_length_b       17.7556
_cell_length_c       14.5125
_cell_angle_alpha    90
_cell_angle_beta     102.924
_cell_angle_gamma    90

_symmetry_space_group_name_H-M    "P 1"
_symmetry_int_tables_number       1

loop_
  _symmetry_equiv_pos_as_xyz
  'x, y, z'

loop_
  _atom_site_label
  _atom_site_occupancy
  _atom_site_fract_x
  _atom_site_fract_y
  _atom_site_fract_z
  _atom_site_thermal_displace_type
  _atom_site_B_iso_or_equiv
  _atom_site_type_symbol
  Cu1      1.0000 0.35793  0.01457  0.84772  Biso   1.000  Cu
  Cu2      1.0000 0.14207  0.51457  0.65228  Biso   1.000  Cu
  Cu3      1.0000 0.64207  0.98543  0.15228  Biso   1.000  Cu
  Cu4      1.0000 0.85793  0.48543  0.34772  Biso   1.000  Cu
  Cu5      1.0000 0.10313  0.03539  0.62780  Biso   1.000  Cu
  Cu6      1.0000 0.39687  0.53539  0.87220  Biso   1.000  Cu
  Cu7      1.0000 0.89687  0.96461  0.37220  Biso   1.000  Cu
  Cu8      1.0000 0.60313  0.46461  0.12780  Biso   1.000  Cu
  Cu9      1.0000 0.46792  0.19932  0.63059  Biso   1.000  Cu
  Cu10     1.0000 0.03208  0.69932  0.86941  Biso   1.000  Cu
  Cu11     1.0000 0.53208  0.80068  0.36941  Biso   1.000  Cu
  Cu12     1.0000 0.96792  0.30068  0.13059  Biso   1.000  Cu
  Cu13     1.0000 0.87398  0.19909  0.81033  Biso   1.000  Cu
  Cu14     1.0000 0.62602  0.69909  0.68967  Biso   1.000  Cu
  Cu15     1.0000 0.12602  0.80091  0.18967  Biso   1.000  Cu
  Cu16     1.0000 0.37398  0.30091  0.31033  Biso   1.000  Cu
  Br1      1.0000 0.66910  0.26922  0.72846  Biso   1.000  Br
  Br2      1.0000 0.83090  0.76922  0.77154  Biso   1.000  Br
  Br3      1.0000 0.33090  0.73078  0.27154  Biso   1.000  Br
  Br4      1.0000 0.16910  0.23078  0.22846  Biso   1.000  Br
  N1       1.0000 0.25310  0.01213  0.95197  Biso   1.000  N
  N2       1.0000 0.24690  0.51213  0.54803  Biso   1.000  N
  N3       1.0000 0.74690  0.98787  0.04803  Biso   1.000  N
  N4       1.0000 0.75310  0.48787  0.45197  Biso   1.000  N
  N5       1.0000 0.43320  0.91687  0.91135  Biso   1.000  N
  N6       1.0000 0.06680  0.41687  0.58865  Biso   1.000  N
  N7       1.0000 0.56680  0.08313  0.08865  Biso   1.000  N
  N8       1.0000 0.93320  0.58313  0.41135  Biso   1.000  N
  N9       1.0000 0.16560  0.92540  0.65090  Biso   1.000  N
  N10      1.0000 0.33440  0.42540  0.84910  Biso   1.000  N
  N11      1.0000 0.83440  0.07460  0.34910  Biso   1.000  N
  N12      1.0000 0.66560  0.57460  0.15090  Biso   1.000  N
  N13      1.0000 0.20240  0.02421  0.52260  Biso   1.000  N
  N14      1.0000 0.29760  0.52421  0.97740  Biso   1.000  N
  N15      1.0000 0.79760  0.97579  0.47740  Biso   1.000  N
  N16      1.0000 0.70240  0.47579  0.02260  Biso   1.000  N
  N17      1.0000 0.42050  0.12318  0.70702  Biso   1.000  N
  N18      1.0000 0.07950  0.62318  0.79298  Biso   1.000  N
  N19      1.0000 0.57950  0.87682  0.29298  Biso   1.000  N
  N20      1.0000 0.92050  0.37682  0.20702  Biso   1.000  N
  N21      1.0000 0.41040  0.26904  0.43890  Biso   1.000  N
  N22      1.0000 0.08960  0.76904  0.06110  Biso   1.000  N
  N23      1.0000 0.58960  0.73096  0.56110  Biso   1.000  N
  N24      1.0000 0.91040  0.23096  0.93890  Biso   1.000  N
  N25      1.0000 0.95020  0.13623  0.73146  Biso   1.000  N
  N26      1.0000 0.54980  0.63623  0.76854  Biso   1.000  N
  N27      1.0000 0.04980  0.86377  0.26854  Biso   1.000  N
  N28      1.0000 0.45020  0.36377  0.23146  Biso   1.000  N
  C1       1.0000 0.17080  0.06570  0.97250  Biso   1.000  C
  C2       1.0000 0.32920  0.56570  0.52750  Biso   1.000  C
  C3       1.0000 0.82920  0.93430  0.02750  Biso   1.000  C
  C4       1.0000 0.67080  0.43430  0.47250  Biso   1.000  C
  H1       1.0000 0.14230  0.10370  0.92840  Biso   1.000  H
  H2       1.0000 0.35770  0.60370  0.57160  Biso   1.000  H
  H3       1.0000 0.85770  0.89630  0.07160  Biso   1.000  H
  H4       1.0000 0.64230  0.39630  0.42840  Biso   1.000  H
  C5       1.0000 0.12610  0.06760  0.05540  Biso   1.000  C
  C6       1.0000 0.37390  0.56760  0.44460  Biso   1.000  C
  C7       1.0000 0.87390  0.93240  0.94460  Biso   1.000  C
  C8       1.0000 0.62610  0.43240  0.55540  Biso   1.000  C
  H5       1.0000 0.06950  0.10610  0.06740  Biso   1.000  H
  H6       1.0000 0.43050  0.60610  0.43260  Biso   1.000  H
  H7       1.0000 0.93050  0.89390  0.93260  Biso   1.000  H
  H8       1.0000 0.56950  0.39390  0.56740  Biso   1.000  H
  C9       1.0000 0.16690  0.01140  0.11940  Biso   1.000  C
  C10      1.0000 0.33310  0.51140  0.38060  Biso   1.000  C
  C11      1.0000 0.83310  0.98860  0.88060  Biso   1.000  C
  C12      1.0000 0.66690  0.48860  0.61940  Biso   1.000  C
  H9       1.0000 0.13790  0.01090  0.17600  Biso   1.000  H
  H10      1.0000 0.36210  0.51090  0.32400  Biso   1.000  H
  H11      1.0000 0.86210  0.98910  0.82400  Biso   1.000  H
  H12      1.0000 0.63790  0.48910  0.67600  Biso   1.000  H
  C13      1.0000 0.25210  0.95483  0.09970  Biso   1.000  C
  C14      1.0000 0.24790  0.45483  0.40030  Biso   1.000  C
  C15      1.0000 0.74790  0.04517  0.90030  Biso   1.000  C
  C16      1.0000 0.75210  0.54517  0.59970  Biso   1.000  C
  H13      1.0000 0.28130  0.91640  0.14310  Biso   1.000  H
  H14      1.0000 0.21870  0.41640  0.35690  Biso   1.000  H
  H15      1.0000 0.71870  0.08360  0.85690  Biso   1.000  H
  H16      1.0000 0.78130  0.58360  0.64310  Biso   1.000  H
  C17      1.0000 0.29310  0.95629  0.01490  Biso   1.000  C
  C18      1.0000 0.20690  0.45629  0.48510  Biso   1.000  C
  C19      1.0000 0.70690  0.04371  0.98510  Biso   1.000  C
  C20      1.0000 0.79310  0.54371  0.51490  Biso   1.000  C
  C21      1.0000 0.38390  0.89883  0.98710  Biso   1.000  C
  C22      1.0000 0.11610  0.39883  0.51290  Biso   1.000  C
  C23      1.0000 0.61610  0.10117  0.01290  Biso   1.000  C
  C24      1.0000 0.88390  0.60117  0.48710  Biso   1.000  C
  C25      1.0000 0.41530  0.83120  0.03390  Biso   1.000  C
  C26      1.0000 0.08470  0.33120  0.46610  Biso   1.000  C
  C27      1.0000 0.58470  0.16880  0.96610  Biso   1.000  C
  C28      1.0000 0.91530  0.66880  0.53390  Biso   1.000  C
  H17      1.0000 0.38000  0.81970  0.08630  Biso   1.000  H
  H18      1.0000 0.12000  0.31970  0.41370  Biso   1.000  H
  H19      1.0000 0.62000  0.18030  0.91370  Biso   1.000  H
  H20      1.0000 0.88000  0.68030  0.58630  Biso   1.000  H
  C29      1.0000 0.49900  0.78110  0.00220  Biso   1.000  C
  C30      1.0000 0.00100  0.28110  0.49780  Biso   1.000  C
  C31      1.0000 0.50100  0.21890  0.99780  Biso   1.000  C
  C32      1.0000 0.99900  0.71890  0.50220  Biso   1.000  C
  H21      1.0000 0.52010  0.73500  0.03240  Biso   1.000  H
  H22      1.0000 0.97990  0.23500  0.46760  Biso   1.000  H
  H23      1.0000 0.47990  0.26500  0.96760  Biso   1.000  H
  H24      1.0000 0.02010  0.76500  0.53240  Biso   1.000  H
  C33      1.0000 0.55190  0.79970  0.92480  Biso   1.000  C
  C34      1.0000 0.94810  0.29970  0.57520  Biso   1.000  C
  C35      1.0000 0.44810  0.20030  0.07520  Biso   1.000  C
  C36      1.0000 0.05190  0.70030  0.42480  Biso   1.000  C
  H25      1.0000 0.60960  0.76690  0.90220  Biso   1.000  H
  H26      1.0000 0.89040  0.26690  0.59780  Biso   1.000  H
  H27      1.0000 0.39040  0.23310  0.09780  Biso   1.000  H
  H28      1.0000 0.10960  0.73310  0.40220  Biso   1.000  H
  C37      1.0000 0.51690  0.86750  0.88300  Biso   1.000  C
  C38      1.0000 0.98310  0.36750  0.61700  Biso   1.000  C
  C39      1.0000 0.48310  0.13250  0.11700  Biso   1.000  C
  C40      1.0000 0.01690  0.63250  0.38300  Biso   1.000  C
  H29      1.0000 0.55330  0.88040  0.83150  Biso   1.000  H
  H30      1.0000 0.94670  0.38040  0.66850  Biso   1.000  H
  H31      1.0000 0.44670  0.11960  0.16850  Biso   1.000  H
  H32      1.0000 0.05330  0.61960  0.33150  Biso   1.000  H
  C41      1.0000 0.14670  0.87890  0.71940  Biso   1.000  C
  C42      1.0000 0.35330  0.37890  0.78060  Biso   1.000  C
  C43      1.0000 0.85330  0.12110  0.28060  Biso   1.000  C
  C44      1.0000 0.64670  0.62110  0.21940  Biso   1.000  C
  H33      1.0000 0.08910  0.89430  0.75800  Biso   1.000  H
  H34      1.0000 0.41090  0.39430  0.74200  Biso   1.000  H
  H35      1.0000 0.91090  0.10570  0.24200  Biso   1.000  H
  H36      1.0000 0.58910  0.60570  0.25800  Biso   1.000  H
  C45      1.0000 0.20700  0.81040  0.73540  Biso   1.000  C
  C46      1.0000 0.29300  0.31040  0.76460  Biso   1.000  C
  C47      1.0000 0.79300  0.18960  0.26460  Biso   1.000  C
  C48      1.0000 0.70700  0.68960  0.23540  Biso   1.000  C
  H37      1.0000 0.19260  0.78010  0.78450  Biso   1.000  H
  H38      1.0000 0.30740  0.28010  0.71550  Biso   1.000  H
  H39      1.0000 0.80740  0.21990  0.21550  Biso   1.000  H
  H40      1.0000 0.69260  0.71990  0.28450  Biso   1.000  H
  C49      1.0000 0.28880  0.78720  0.67840  Biso   1.000  C
  C50      1.0000 0.21120  0.28720  0.82160  Biso   1.000  C
  C51      1.0000 0.71120  0.21280  0.32160  Biso   1.000  C
  C52      1.0000 0.78880  0.71280  0.17840  Biso   1.000  C
  H41      1.0000 0.33100  0.74030  0.68730  Biso   1.000  H
  H42      1.0000 0.16900  0.24030  0.81270  Biso   1.000  H
  H43      1.0000 0.66900  0.25970  0.31270  Biso   1.000  H
  H44      1.0000 0.83100  0.75970  0.18730  Biso   1.000  H
  C53      1.0000 0.30870  0.83330  0.60770  Biso   1.000  C
  C54      1.0000 0.19130  0.33330  0.89230  Biso   1.000  C
  C55      1.0000 0.69130  0.16670  0.39230  Biso   1.000  C
  C56      1.0000 0.80870  0.66670  0.10770  Biso   1.000  C
  H45      1.0000 0.36520  0.81790  0.56840  Biso   1.000  H
  H46      1.0000 0.13480  0.31790  0.93160  Biso   1.000  H
  H47      1.0000 0.63480  0.18210  0.43160  Biso   1.000  H
  H48      1.0000 0.86520  0.68210  0.06840  Biso   1.000  H
  C57      1.0000 0.24580  0.90280  0.59400  Biso   1.000  C
  C58      1.0000 0.25420  0.40280  0.90600  Biso   1.000  C
  C59      1.0000 0.75420  0.09720  0.40600  Biso   1.000  C
  C60      1.0000 0.74580  0.59720  0.09400  Biso   1.000  C
  C61      1.0000 0.26310  0.95690  0.52040  Biso   1.000  C
  C62      1.0000 0.23690  0.45690  0.97960  Biso   1.000  C
  C63      1.0000 0.73690  0.04310  0.47960  Biso   1.000  C
  C64      1.0000 0.76310  0.54310  0.02040  Biso   1.000  C
  C65      1.0000 0.33610  0.94200  0.45220  Biso   1.000  C
  C66      1.0000 0.16390  0.44200  0.04780  Biso   1.000  C
  C67      1.0000 0.66390  0.05800  0.54780  Biso   1.000  C
  C68      1.0000 0.83610  0.55800  0.95220  Biso   1.000  C
  H49      1.0000 0.37690  0.89510  0.45040  Biso   1.000  H
  H50      1.0000 0.12310  0.39510  0.04960  Biso   1.000  H
  H51      1.0000 0.62310  0.10490  0.54960  Biso   1.000  H
  H52      1.0000 0.87690  0.60490  0.95040  Biso   1.000  H
  C69      1.0000 0.34870  0.99540  0.38760  Biso   1.000  C
  C70      1.0000 0.15130  0.49540  0.11240  Biso   1.000  C
  C71      1.0000 0.65130  0.00460  0.61240  Biso   1.000  C
  C72      1.0000 0.84870  0.50460  0.88760  Biso   1.000  C
  H53      1.0000 0.39810  0.98530  0.34180  Biso   1.000  H
  H54      1.0000 0.10190  0.48530  0.15820  Biso   1.000  H
  H55      1.0000 0.60190  0.01470  0.65820  Biso   1.000  H
  H56      1.0000 0.89810  0.51470  0.84180  Biso   1.000  H
  C73      1.0000 0.28900  0.06340  0.39040  Biso   1.000  C
  C74      1.0000 0.21100  0.56340  0.10960  Biso   1.000  C
  C75      1.0000 0.71100  0.93660  0.60960  Biso   1.000  C
  C76      1.0000 0.78900  0.43660  0.89040  Biso   1.000  C
  H57      1.0000 0.29720  0.10090  0.34730  Biso   1.000  H
  H58      1.0000 0.20280  0.60090  0.15270  Biso   1.000  H
  H59      1.0000 0.70280  0.89910  0.65270  Biso   1.000  H
  H60      1.0000 0.79720  0.39910  0.84730  Biso   1.000  H
  C77      1.0000 0.21640  0.07550  0.45800  Biso   1.000  C
  C78      1.0000 0.28360  0.57550  0.04200  Biso   1.000  C
  C79      1.0000 0.78360  0.92450  0.54200  Biso   1.000  C
  C80      1.0000 0.71640  0.42450  0.95800  Biso   1.000  C
  H61      1.0000 0.17420  0.12210  0.45930  Biso   1.000  H
  H62      1.0000 0.32580  0.62210  0.04070  Biso   1.000  H
  H63      1.0000 0.82580  0.87790  0.54070  Biso   1.000  H
  H64      1.0000 0.67420  0.37790  0.95930  Biso   1.000  H
  C81      1.0000 0.39230  0.08020  0.75800  Biso   1.000  C
  C82      1.0000 0.10770  0.58020  0.74200  Biso   1.000  C
  C83      1.0000 0.60770  0.91980  0.24200  Biso   1.000  C
  C84      1.0000 0.89230  0.41980  0.25800  Biso   1.000  C
  C85      1.0000 0.42830  0.24393  0.51300  Biso   1.000  C
  C86      1.0000 0.07170  0.74393  0.98700  Biso   1.000  C
  C87      1.0000 0.57170  0.75607  0.48700  Biso   1.000  C
  C88      1.0000 0.92830  0.25607  0.01300  Biso   1.000  C
  C89      1.0000 0.00470  0.09831  0.68810  Biso   1.000  C
  C90      1.0000 0.49530  0.59831  0.81190  Biso   1.000  C
  C91      1.0000 0.99530  0.90169  0.31190  Biso   1.000  C
  C92      1.0000 0.50470  0.40169  0.18810  Biso   1.000  C
