data_image0
_cell_length_a       11.61
_cell_length_b       20.735
_cell_length_c       8.171
_cell_angle_alpha    90
_cell_angle_beta     103.1
_cell_angle_gamma    90

_symmetry_space_group_name_H-M    "P 1"
_symmetry_int_tables_number       1

loop_
  _symmetry_equiv_pos_as_xyz
  'x, y, z'

loop_
  _atom_site_label
  _atom_site_occupancy
  _atom_site_fract_x
  _atom_site_fract_y
  _atom_site_fract_z
  _atom_site_thermal_displace_type
  _atom_site_B_iso_or_equiv
  _atom_site_type_symbol
  Cu1      1.0000 0.08876  0.95144  0.06880  Biso   1.000  Cu
  Cu2      1.0000 0.41124  0.45144  0.43120  Biso   1.000  Cu
  Cu3      1.0000 0.91124  0.04856  0.93120  Biso   1.000  Cu
  Cu4      1.0000 0.58876  0.54856  0.56880  Biso   1.000  Cu
  Br1      1.0000 0.88085  0.95154  0.10572  Biso   1.000  Br
  Br2      1.0000 0.61915  0.45154  0.39428  Biso   1.000  Br
  Br3      1.0000 0.11915  0.04846  0.89428  Biso   1.000  Br
  Br4      1.0000 0.38085  0.54846  0.60572  Biso   1.000  Br
  S1       1.0000 0.10210  0.86943  0.88550  Biso   1.000  S
  S2       1.0000 0.39790  0.36943  0.61450  Biso   1.000  S
  S3       1.0000 0.89790  0.13057  0.11450  Biso   1.000  S
  S4       1.0000 0.60210  0.63057  0.38550  Biso   1.000  S
  S5       1.0000 0.21630  0.96648  0.32650  Biso   1.000  S
  S6       1.0000 0.28370  0.46648  0.17350  Biso   1.000  S
  S7       1.0000 0.78370  0.03352  0.67350  Biso   1.000  S
  S8       1.0000 0.71630  0.53352  0.82650  Biso   1.000  S
  C1       1.0000 0.34740  0.86280  0.73850  Biso   1.000  C
  C2       1.0000 0.15260  0.36280  0.76150  Biso   1.000  C
  C3       1.0000 0.65260  0.13720  0.26150  Biso   1.000  C
  C4       1.0000 0.84740  0.63720  0.23850  Biso   1.000  C
  C5       1.0000 0.33970  0.86070  0.90610  Biso   1.000  C
  C6       1.0000 0.16030  0.36070  0.59390  Biso   1.000  C
  C7       1.0000 0.66030  0.13930  0.09390  Biso   1.000  C
  C8       1.0000 0.83970  0.63930  0.40610  Biso   1.000  C
  C9       1.0000 0.42570  0.89180  0.02500  Biso   1.000  C
  C10      1.0000 0.07430  0.39180  0.47500  Biso   1.000  C
  C11      1.0000 0.57430  0.10820  0.97500  Biso   1.000  C
  C12      1.0000 0.92570  0.60820  0.52500  Biso   1.000  C
  C13      1.0000 0.51740  0.92300  0.98500  Biso   1.000  C
  C14      1.0000 0.98260  0.42300  0.51500  Biso   1.000  C
  C15      1.0000 0.48260  0.07700  0.01500  Biso   1.000  C
  C16      1.0000 0.01740  0.57700  0.48500  Biso   1.000  C
  C17      1.0000 0.52320  0.92710  0.81900  Biso   1.000  C
  C18      1.0000 0.97680  0.42710  0.68100  Biso   1.000  C
  C19      1.0000 0.47680  0.07290  0.18100  Biso   1.000  C
  C20      1.0000 0.02320  0.57290  0.31900  Biso   1.000  C
  C21      1.0000 0.43940  0.89690  0.69600  Biso   1.000  C
  C22      1.0000 0.06060  0.39690  0.80400  Biso   1.000  C
  C23      1.0000 0.56060  0.10310  0.30400  Biso   1.000  C
  C24      1.0000 0.93940  0.60310  0.19600  Biso   1.000  C
  C25      1.0000 0.26440  0.82610  0.60520  Biso   1.000  C
  C26      1.0000 0.23560  0.32610  0.89480  Biso   1.000  C
  C27      1.0000 0.73560  0.17390  0.39480  Biso   1.000  C
  C28      1.0000 0.76440  0.67390  0.10520  Biso   1.000  C
  C29      1.0000 0.17360  0.85460  0.48650  Biso   1.000  C
  C30      1.0000 0.32640  0.35460  0.01350  Biso   1.000  C
  C31      1.0000 0.82640  0.14540  0.51350  Biso   1.000  C
  C32      1.0000 0.67360  0.64540  0.98650  Biso   1.000  C
  C33      1.0000 0.09870  0.81710  0.36700  Biso   1.000  C
  C34      1.0000 0.40130  0.31710  0.13300  Biso   1.000  C
  C35      1.0000 0.90130  0.18290  0.63300  Biso   1.000  C
  C36      1.0000 0.59870  0.68290  0.86700  Biso   1.000  C
  C37      1.0000 0.11140  0.75070  0.36600  Biso   1.000  C
  C38      1.0000 0.38860  0.25070  0.13400  Biso   1.000  C
  C39      1.0000 0.88860  0.24930  0.63400  Biso   1.000  C
  C40      1.0000 0.61140  0.74930  0.86600  Biso   1.000  C
  C41      1.0000 0.20080  0.72140  0.48000  Biso   1.000  C
  C42      1.0000 0.29920  0.22140  0.02000  Biso   1.000  C
  C43      1.0000 0.79920  0.27860  0.52000  Biso   1.000  C
  C44      1.0000 0.70080  0.77860  0.98000  Biso   1.000  C
  C45      1.0000 0.27560  0.75870  0.59850  Biso   1.000  C
  C46      1.0000 0.22440  0.25870  0.90150  Biso   1.000  C
  C47      1.0000 0.72440  0.24130  0.40150  Biso   1.000  C
  C48      1.0000 0.77560  0.74130  0.09850  Biso   1.000  C
  C49      1.0000 0.24080  0.82580  0.95570  Biso   1.000  C
  C50      1.0000 0.25920  0.32580  0.54430  Biso   1.000  C
  C51      1.0000 0.75920  0.17420  0.04430  Biso   1.000  C
  C52      1.0000 0.74080  0.67420  0.45570  Biso   1.000  C
  C53      1.0000 0.99590  0.80750  0.90690  Biso   1.000  C
  C54      1.0000 0.50410  0.30750  0.59310  Biso   1.000  C
  C55      1.0000 0.00410  0.19250  0.09310  Biso   1.000  C
  C56      1.0000 0.49590  0.69250  0.40690  Biso   1.000  C
  C57      1.0000 0.97170  0.75980  0.76600  Biso   1.000  C
  C58      1.0000 0.52830  0.25980  0.73400  Biso   1.000  C
  C59      1.0000 0.02830  0.24020  0.23400  Biso   1.000  C
  C60      1.0000 0.47170  0.74020  0.26600  Biso   1.000  C
  C61      1.0000 0.15100  0.92660  0.48530  Biso   1.000  C
  C62      1.0000 0.34900  0.42660  0.01470  Biso   1.000  C
  C63      1.0000 0.84900  0.07340  0.51470  Biso   1.000  C
  C64      1.0000 0.65100  0.57340  0.98530  Biso   1.000  C
  C65      1.0000 0.19270  0.05110  0.37500  Biso   1.000  C
  C66      1.0000 0.30730  0.55110  0.12500  Biso   1.000  C
  C67      1.0000 0.80730  0.94890  0.62500  Biso   1.000  C
  C68      1.0000 0.69270  0.44890  0.87500  Biso   1.000  C
  C69      1.0000 0.28100  0.07390  0.53000  Biso   1.000  C
  C70      1.0000 0.21900  0.57390  0.97000  Biso   1.000  C
  C71      1.0000 0.71900  0.92610  0.47000  Biso   1.000  C
  C72      1.0000 0.78100  0.42610  0.03000  Biso   1.000  C
  H1       1.0000 0.41100  0.89000  0.12200  Biso   1.000  H
  H2       1.0000 0.08900  0.39000  0.37800  Biso   1.000  H
  H3       1.0000 0.58900  0.11000  0.87800  Biso   1.000  H
  H4       1.0000 0.91100  0.61000  0.62200  Biso   1.000  H
  H5       1.0000 0.57900  0.94100  0.06400  Biso   1.000  H
  H6       1.0000 0.92100  0.44100  0.43600  Biso   1.000  H
  H7       1.0000 0.42100  0.05900  0.93600  Biso   1.000  H
  H8       1.0000 0.07900  0.55900  0.56400  Biso   1.000  H
  H9       1.0000 0.58500  0.94500  0.79700  Biso   1.000  H
  H10      1.0000 0.91500  0.44500  0.70300  Biso   1.000  H
  H11      1.0000 0.41500  0.05500  0.20300  Biso   1.000  H
  H12      1.0000 0.08500  0.55500  0.29700  Biso   1.000  H
  H13      1.0000 0.44500  0.89400  0.58400  Biso   1.000  H
  H14      1.0000 0.05500  0.39400  0.91600  Biso   1.000  H
  H15      1.0000 0.55500  0.10600  0.41600  Biso   1.000  H
  H16      1.0000 0.94500  0.60600  0.08400  Biso   1.000  H
  H17      1.0000 0.03700  0.83300  0.30300  Biso   1.000  H
  H18      1.0000 0.46300  0.33300  0.19700  Biso   1.000  H
  H19      1.0000 0.96300  0.16700  0.69700  Biso   1.000  H
  H20      1.0000 0.53700  0.66700  0.80300  Biso   1.000  H
  H21      1.0000 0.05800  0.72700  0.28800  Biso   1.000  H
  H22      1.0000 0.44200  0.22700  0.21200  Biso   1.000  H
  H23      1.0000 0.94200  0.27300  0.71200  Biso   1.000  H
  H24      1.0000 0.55800  0.77300  0.78800  Biso   1.000  H
  H25      1.0000 0.18920  0.67700  0.47170  Biso   1.000  H
  H26      1.0000 0.31080  0.17700  0.02830  Biso   1.000  H
  H27      1.0000 0.81080  0.32300  0.52830  Biso   1.000  H
  H28      1.0000 0.68920  0.82300  0.97170  Biso   1.000  H
  H29      1.0000 0.33800  0.73450  0.69820  Biso   1.000  H
  H30      1.0000 0.16200  0.23450  0.80180  Biso   1.000  H
  H31      1.0000 0.66200  0.26550  0.30180  Biso   1.000  H
  H32      1.0000 0.83800  0.76550  0.19820  Biso   1.000  H
  H33      1.0000 0.23260  0.78100  0.91020  Biso   1.000  H
  H34      1.0000 0.26740  0.28100  0.58980  Biso   1.000  H
  H35      1.0000 0.76740  0.21900  0.08980  Biso   1.000  H
  H36      1.0000 0.73260  0.71900  0.41020  Biso   1.000  H
  H37      1.0000 0.25680  0.81840  0.07890  Biso   1.000  H
  H38      1.0000 0.24320  0.31840  0.42110  Biso   1.000  H
  H39      1.0000 0.74320  0.18160  0.92110  Biso   1.000  H
  H40      1.0000 0.75680  0.68160  0.57890  Biso   1.000  H
  H41      1.0000 0.02250  0.78280  0.00860  Biso   1.000  H
  H42      1.0000 0.47750  0.28280  0.49140  Biso   1.000  H
  H43      1.0000 0.97750  0.21720  0.99140  Biso   1.000  H
  H44      1.0000 0.52250  0.71720  0.50860  Biso   1.000  H
  H45      1.0000 0.92070  0.82660  0.91370  Biso   1.000  H
  H46      1.0000 0.57930  0.32660  0.58630  Biso   1.000  H
  H47      1.0000 0.07930  0.17340  0.08630  Biso   1.000  H
  H48      1.0000 0.42070  0.67340  0.41370  Biso   1.000  H
  H49      1.0000 0.91380  0.72860  0.77750  Biso   1.000  H
  H50      1.0000 0.58620  0.22860  0.72250  Biso   1.000  H
  H51      1.0000 0.08620  0.27140  0.22250  Biso   1.000  H
  H52      1.0000 0.41380  0.77140  0.27750  Biso   1.000  H
  H53      1.0000 0.04190  0.73890  0.75610  Biso   1.000  H
  H54      1.0000 0.45810  0.23890  0.74390  Biso   1.000  H
  H55      1.0000 0.95810  0.26110  0.24390  Biso   1.000  H
  H56      1.0000 0.54190  0.76110  0.25610  Biso   1.000  H
  H57      1.0000 0.94050  0.78290  0.66080  Biso   1.000  H
  H58      1.0000 0.55950  0.28290  0.83920  Biso   1.000  H
  H59      1.0000 0.05950  0.21710  0.33920  Biso   1.000  H
  H60      1.0000 0.44050  0.71710  0.16080  Biso   1.000  H
  H61      1.0000 0.04900  0.93900  0.47000  Biso   1.000  H
  H62      1.0000 0.45100  0.43900  0.03000  Biso   1.000  H
  H63      1.0000 0.95100  0.06100  0.53000  Biso   1.000  H
  H64      1.0000 0.54900  0.56100  0.97000  Biso   1.000  H
  H65      1.0000 0.18000  0.94300  0.57900  Biso   1.000  H
  H66      1.0000 0.32000  0.44300  0.92100  Biso   1.000  H
  H67      1.0000 0.82000  0.05700  0.42100  Biso   1.000  H
  H68      1.0000 0.68000  0.55700  0.07900  Biso   1.000  H
  H69      1.0000 0.10100  0.05300  0.38700  Biso   1.000  H
  H70      1.0000 0.39900  0.55300  0.11300  Biso   1.000  H
  H71      1.0000 0.89900  0.94700  0.61300  Biso   1.000  H
  H72      1.0000 0.60100  0.44700  0.88700  Biso   1.000  H
  H73      1.0000 0.18800  0.08090  0.26960  Biso   1.000  H
  H74      1.0000 0.31200  0.58090  0.23040  Biso   1.000  H
  H75      1.0000 0.81200  0.91910  0.73040  Biso   1.000  H
  H76      1.0000 0.68800  0.41910  0.76960  Biso   1.000  H
  H77      1.0000 0.36700  0.07700  0.49000  Biso   1.000  H
  H78      1.0000 0.13300  0.57700  0.01000  Biso   1.000  H
  H79      1.0000 0.63300  0.92300  0.51000  Biso   1.000  H
  H80      1.0000 0.86700  0.42300  0.99000  Biso   1.000  H
  H81      1.0000 0.26400  0.10600  0.55200  Biso   1.000  H
  H82      1.0000 0.23600  0.60600  0.94800  Biso   1.000  H
  H83      1.0000 0.73600  0.89400  0.44800  Biso   1.000  H
  H84      1.0000 0.76400  0.39400  0.05200  Biso   1.000  H
  H85      1.0000 0.24400  0.05500  0.62000  Biso   1.000  H
  H86      1.0000 0.25600  0.55500  0.88000  Biso   1.000  H
  H87      1.0000 0.75600  0.94500  0.38000  Biso   1.000  H
  H88      1.0000 0.74400  0.44500  0.12000  Biso   1.000  H
