data_image0
_cell_length_a       10.959
_cell_length_b       12.571
_cell_length_c       16.387
_cell_angle_alpha    111.975
_cell_angle_beta     98.893
_cell_angle_gamma    94.429

_symmetry_space_group_name_H-M    "P 1"
_symmetry_int_tables_number       1

loop_
  _symmetry_equiv_pos_as_xyz
  'x, y, z'

loop_
  _atom_site_label
  _atom_site_occupancy
  _atom_site_fract_x
  _atom_site_fract_y
  _atom_site_fract_z
  _atom_site_thermal_displace_type
  _atom_site_B_iso_or_equiv
  _atom_site_type_symbol
  Cu1      1.0000 0.80048  0.27701  0.75306  Biso   1.000  Cu
  Cu2      1.0000 0.19952  0.72299  0.24694  Biso   1.000  Cu
  Cu3      1.0000 0.64524  0.25539  0.60101  Biso   1.000  Cu
  Cu4      1.0000 0.35476  0.74461  0.39899  Biso   1.000  Cu
  Cu5      1.0000 0.63242  0.42416  0.75634  Biso   1.000  Cu
  Cu6      1.0000 0.36758  0.57584  0.24366  Biso   1.000  Cu
  Cu7      1.0000 0.83557  0.43361  0.68263  Biso   1.000  Cu
  Cu8      1.0000 0.16443  0.56639  0.31737  Biso   1.000  Cu
  I1       1.0000 0.85438  0.50301  0.86457  Biso   1.000  I
  I2       1.0000 0.14562  0.49699  0.13543  Biso   1.000  I
  I3       1.0000 0.61848  0.47400  0.60879  Biso   1.000  I
  I4       1.0000 0.38152  0.52600  0.39121  Biso   1.000  I
  I5       1.0000 0.55473  0.20281  0.72698  Biso   1.000  I
  I6       1.0000 0.44527  0.79719  0.27302  Biso   1.000  I
  I7       1.0000 0.88495  0.21740  0.60151  Biso   1.000  I
  I8       1.0000 0.11505  0.78260  0.39849  Biso   1.000  I
  S1       1.0000 0.88053  0.17039  0.83075  Biso   1.000  S
  S2       1.0000 0.11947  0.82961  0.16925  Biso   1.000  S
  S3       1.0000 0.52620  0.12623  0.46641  Biso   1.000  S
  S4       1.0000 0.47380  0.87377  0.53359  Biso   1.000  S
  O1       1.0000 0.78870  0.35220  0.06250  Biso   1.000  O
  O2       1.0000 0.21130  0.64780  0.93750  Biso   1.000  O
  O3       1.0000 0.73560  0.21587  0.31533  Biso   1.000  O
  O4       1.0000 0.26440  0.78413  0.68467  Biso   1.000  O
  N1       1.0000 0.50080  0.49630  0.17986  Biso   1.000  N
  N2       1.0000 0.49920  0.50370  0.82014  Biso   1.000  N
  N3       1.0000 0.02180  0.45510  0.32114  Biso   1.000  N
  N4       1.0000 0.97820  0.54490  0.67886  Biso   1.000  N
  C1       1.0000 0.12950  0.27150  0.85460  Biso   1.000  C
  C2       1.0000 0.87050  0.72850  0.14540  Biso   1.000  C
  H1       1.0000 0.13270  0.31350  0.91970  Biso   1.000  H
  H2       1.0000 0.86730  0.68650  0.08030  Biso   1.000  H
  H3       1.0000 0.09670  0.32030  0.82330  Biso   1.000  H
  H4       1.0000 0.90330  0.67970  0.17670  Biso   1.000  H
  C3       1.0000 0.26160  0.25060  0.83840  Biso   1.000  C
  C4       1.0000 0.73840  0.74940  0.16160  Biso   1.000  C
  H5       1.0000 0.25950  0.21700  0.77300  Biso   1.000  H
  H6       1.0000 0.74050  0.78300  0.22700  Biso   1.000  H
  H7       1.0000 0.31790  0.32560  0.86470  Biso   1.000  H
  H8       1.0000 0.68210  0.67440  0.13530  Biso   1.000  H
  C5       1.0000 0.31260  0.16910  0.87950  Biso   1.000  C
  C6       1.0000 0.68740  0.83090  0.12050  Biso   1.000  C
  H9       1.0000 0.32430  0.20670  0.94570  Biso   1.000  H
  H10      1.0000 0.67570  0.79330  0.05430  Biso   1.000  H
  H11      1.0000 0.39500  0.15340  0.86410  Biso   1.000  H
  H12      1.0000 0.60500  0.84660  0.13590  Biso   1.000  H
  C7       1.0000 0.22480  0.05550  0.84590  Biso   1.000  C
  C8       1.0000 0.77520  0.94450  0.15410  Biso   1.000  C
  H13      1.0000 0.25790  0.00610  0.87640  Biso   1.000  H
  H14      1.0000 0.74210  0.99390  0.12360  Biso   1.000  H
  H15      1.0000 0.21990  0.01380  0.78060  Biso   1.000  H
  H16      1.0000 0.78010  0.98620  0.21940  Biso   1.000  H
  C9       1.0000 0.09410  0.07680  0.86370  Biso   1.000  C
  C10      1.0000 0.90590  0.92320  0.13630  Biso   1.000  C
  H17      1.0000 0.03750  0.00200  0.83900  Biso   1.000  H
  H18      1.0000 0.96250  0.99800  0.16100  Biso   1.000  H
  H19      1.0000 0.09760  0.11240  0.92930  Biso   1.000  H
  H20      1.0000 0.90240  0.88760  0.07070  Biso   1.000  H
  C11      1.0000 0.04290  0.15700  0.82040  Biso   1.000  C
  C12      1.0000 0.95710  0.84300  0.17960  Biso   1.000  C
  H21      1.0000 0.04250  0.11820  0.75480  Biso   1.000  H
  H22      1.0000 0.95750  0.88180  0.24520  Biso   1.000  H
  C13      1.0000 0.89700  0.26130  0.94870  Biso   1.000  C
  C14      1.0000 0.10300  0.73870  0.05130  Biso   1.000  C
  H23      1.0000 0.93410  0.22110  0.98600  Biso   1.000  H
  H24      1.0000 0.06590  0.77890  0.01400  Biso   1.000  H
  H25      1.0000 0.95280  0.33460  0.96380  Biso   1.000  H
  H26      1.0000 0.04720  0.66540  0.03620  Biso   1.000  H
  C15      1.0000 0.76870  0.28670  0.96740  Biso   1.000  C
  C16      1.0000 0.23130  0.71330  0.03260  Biso   1.000  C
  H27      1.0000 0.73340  0.33240  0.93400  Biso   1.000  H
  H28      1.0000 0.26660  0.66760  0.06600  Biso   1.000  H
  H29      1.0000 0.71080  0.21380  0.94960  Biso   1.000  H
  H30      1.0000 0.28920  0.78620  0.05040  Biso   1.000  H
  C17      1.0000 0.69080  0.39810  0.09610  Biso   1.000  C
  C18      1.0000 0.30920  0.60190  0.90390  Biso   1.000  C
  C19      1.0000 0.71370  0.46420  0.18800  Biso   1.000  C
  C20      1.0000 0.28630  0.53580  0.81200  Biso   1.000  C
  H31      1.0000 0.79470  0.47690  0.22370  Biso   1.000  H
  H32      1.0000 0.20530  0.52310  0.77630  Biso   1.000  H
  C21      1.0000 0.61740  0.51060  0.22610  Biso   1.000  C
  C22      1.0000 0.38260  0.48940  0.77390  Biso   1.000  C
  H33      1.0000 0.63400  0.55550  0.28890  Biso   1.000  H
  H34      1.0000 0.36600  0.44450  0.71110  Biso   1.000  H
  C23      1.0000 0.48070  0.43350  0.09180  Biso   1.000  C
  C24      1.0000 0.51930  0.56650  0.90820  Biso   1.000  C
  H35      1.0000 0.39880  0.42250  0.05790  Biso   1.000  H
  H36      1.0000 0.60120  0.57750  0.94210  Biso   1.000  H
  C25      1.0000 0.57140  0.38340  0.04660  Biso   1.000  C
  C26      1.0000 0.42860  0.61660  0.95340  Biso   1.000  C
  H37      1.0000 0.55260  0.34010  0.98350  Biso   1.000  H
  H38      1.0000 0.44740  0.65990  0.01650  Biso   1.000  H
  C27      1.0000 0.31980  0.20740  0.52010  Biso   1.000  C
  C28      1.0000 0.68020  0.79260  0.47990  Biso   1.000  C
  H39      1.0000 0.29930  0.13230  0.52510  Biso   1.000  H
  H40      1.0000 0.70070  0.86770  0.47490  Biso   1.000  H
  H41      1.0000 0.37530  0.26080  0.57690  Biso   1.000  H
  H42      1.0000 0.62470  0.73920  0.42310  Biso   1.000  H
  C29      1.0000 0.20020  0.25800  0.50520  Biso   1.000  C
  C30      1.0000 0.79980  0.74200  0.49480  Biso   1.000  C
  H43      1.0000 0.15620  0.26690  0.55530  Biso   1.000  H
  H44      1.0000 0.84380  0.73310  0.44470  Biso   1.000  H
  H45      1.0000 0.22170  0.33590  0.50510  Biso   1.000  H
  H46      1.0000 0.77830  0.66410  0.49490  Biso   1.000  H
  C31      1.0000 0.11420  0.18090  0.41700  Biso   1.000  C
  C32      1.0000 0.88580  0.81910  0.58300  Biso   1.000  C
  H47      1.0000 0.03910  0.21720  0.40780  Biso   1.000  H
  H48      1.0000 0.96090  0.78280  0.59220  Biso   1.000  H
  H49      1.0000 0.08700  0.10490  0.41850  Biso   1.000  H
  H50      1.0000 0.91300  0.89510  0.58150  Biso   1.000  H
  C33      1.0000 0.18280  0.16370  0.34010  Biso   1.000  C
  C34      1.0000 0.81720  0.83630  0.65990  Biso   1.000  C
  H51      1.0000 0.20370  0.23930  0.33590  Biso   1.000  H
  H52      1.0000 0.79630  0.76070  0.66410  Biso   1.000  H
  H53      1.0000 0.12750  0.11130  0.28300  Biso   1.000  H
  H54      1.0000 0.87250  0.88870  0.71700  Biso   1.000  H
  C35      1.0000 0.30250  0.11250  0.35340  Biso   1.000  C
  C36      1.0000 0.69750  0.88750  0.64660  Biso   1.000  C
  H55      1.0000 0.28160  0.03410  0.35260  Biso   1.000  H
  H56      1.0000 0.71840  0.96590  0.64740  Biso   1.000  H
  H57      1.0000 0.34650  0.10520  0.30350  Biso   1.000  H
  H58      1.0000 0.65350  0.89480  0.69650  Biso   1.000  H
  C37      1.0000 0.38720  0.18940  0.44200  Biso   1.000  C
  C38      1.0000 0.61280  0.81060  0.55800  Biso   1.000  C
  H59      1.0000 0.41370  0.26640  0.44040  Biso   1.000  H
  H60      1.0000 0.58630  0.73360  0.55960  Biso   1.000  H
  C39      1.0000 0.60900  0.12150  0.37810  Biso   1.000  C
  C40      1.0000 0.39100  0.87850  0.62190  Biso   1.000  C
  H61      1.0000 0.67460  0.07150  0.37730  Biso   1.000  H
  H62      1.0000 0.32540  0.92850  0.62270  Biso   1.000  H
  H63      1.0000 0.54990  0.08550  0.31960  Biso   1.000  H
  H64      1.0000 0.45010  0.91450  0.68040  Biso   1.000  H
  C41      1.0000 0.66860  0.23870  0.38810  Biso   1.000  C
  C42      1.0000 0.33140  0.76130  0.61190  Biso   1.000  C
  H65      1.0000 0.60440  0.28840  0.38330  Biso   1.000  H
  H66      1.0000 0.39560  0.71160  0.61670  Biso   1.000  H
  H67      1.0000 0.72650  0.27790  0.44680  Biso   1.000  H
  H68      1.0000 0.27350  0.72210  0.55320  Biso   1.000  H
  C43      1.0000 0.82640  0.29850  0.32130  Biso   1.000  C
  C44      1.0000 0.17360  0.70150  0.67870  Biso   1.000  C
  C45      1.0000 0.89700  0.26810  0.25490  Biso   1.000  C
  C46      1.0000 0.10300  0.73190  0.74510  Biso   1.000  C
  H69      1.0000 0.87960  0.19300  0.20800  Biso   1.000  H
  H70      1.0000 0.12040  0.80700  0.79200  Biso   1.000  H
  C47      1.0000 0.99230  0.34780  0.25780  Biso   1.000  C
  C48      1.0000 0.00770  0.65220  0.74220  Biso   1.000  C
  H71      1.0000 0.04010  0.32530  0.21200  Biso   1.000  H
  H72      1.0000 0.95990  0.67470  0.78800  Biso   1.000  H
  C49      1.0000 0.95290  0.48400  0.38420  Biso   1.000  C
  C50      1.0000 0.04710  0.51600  0.61580  Biso   1.000  C
  H73      1.0000 0.97210  0.56010  0.42980  Biso   1.000  H
  H74      1.0000 0.02790  0.43990  0.57020  Biso   1.000  H
  C51      1.0000 0.85430  0.40960  0.38770  Biso   1.000  C
  C52      1.0000 0.14570  0.59040  0.61230  Biso   1.000  C
  H75      1.0000 0.80780  0.43430  0.43410  Biso   1.000  H
  H76      1.0000 0.19220  0.56570  0.56590  Biso   1.000  H
  C53      1.0000 0.48050  0.11690  0.13820  Biso   1.000  C
  C54      1.0000 0.51950  0.88310  0.86180  Biso   1.000  C
  H77      1.0000 0.56690  0.11070  0.14840  Biso   1.000  H
  H78      1.0000 0.43310  0.88930  0.85160  Biso   1.000  H
  C55      1.0000 0.44090  0.21910  0.18080  Biso   1.000  C
  C56      1.0000 0.55910  0.78090  0.81920  Biso   1.000  C
  H79      1.0000 0.49940  0.28480  0.22030  Biso   1.000  H
  H80      1.0000 0.50060  0.71520  0.77970  Biso   1.000  H
  C57      1.0000 0.31600  0.22730  0.16670  Biso   1.000  C
  C58      1.0000 0.68400  0.77270  0.83330  Biso   1.000  C
  H81      1.0000 0.28870  0.29920  0.19660  Biso   1.000  H
  H82      1.0000 0.71130  0.70080  0.80340  Biso   1.000  H
  C59      1.0000 0.23050  0.13460  0.11070  Biso   1.000  C
  C60      1.0000 0.76950  0.86540  0.88930  Biso   1.000  C
  H83      1.0000 0.14420  0.14160  0.10200  Biso   1.000  H
  H84      1.0000 0.85580  0.85840  0.89800  Biso   1.000  H
  C61      1.0000 0.26940  0.03050  0.06660  Biso   1.000  C
  C62      1.0000 0.73060  0.96950  0.93340  Biso   1.000  C
  H85      1.0000 0.21050  0.96500  0.02720  Biso   1.000  H
  H86      1.0000 0.78950  0.03500  0.97280  Biso   1.000  H
  C63      1.0000 0.39620  0.02220  0.08040  Biso   1.000  C
  C64      1.0000 0.60380  0.97780  0.91960  Biso   1.000  C
  H87      1.0000 0.42440  0.95100  0.04970  Biso   1.000  H
  H88      1.0000 0.57560  0.04900  0.95030  Biso   1.000  H
