data_image0
_cell_length_a       11.1112
_cell_length_b       12.1975
_cell_length_c       16.3991
_cell_angle_alpha    103.282
_cell_angle_beta     98.166
_cell_angle_gamma    109.703

_symmetry_space_group_name_H-M    "P 1"
_symmetry_int_tables_number       1

loop_
  _symmetry_equiv_pos_as_xyz
  'x, y, z'

loop_
  _atom_site_label
  _atom_site_occupancy
  _atom_site_fract_x
  _atom_site_fract_y
  _atom_site_fract_z
  _atom_site_thermal_displace_type
  _atom_site_B_iso_or_equiv
  _atom_site_type_symbol
  Cu1      1.0000 0.25399  0.71572  0.22791  Biso   1.000  Cu
  Cu2      1.0000 0.74601  0.28428  0.77209  Biso   1.000  Cu
  Cu3      1.0000 0.41629  0.73924  0.37771  Biso   1.000  Cu
  Cu4      1.0000 0.58371  0.26076  0.62229  Biso   1.000  Cu
  Cu5      1.0000 0.38845  0.56850  0.23575  Biso   1.000  Cu
  Cu6      1.0000 0.61155  0.43150  0.76425  Biso   1.000  Cu
  Cu7      1.0000 0.17864  0.54342  0.30549  Biso   1.000  Cu
  Cu8      1.0000 0.82136  0.45658  0.69451  Biso   1.000  Cu
  I1       1.0000 0.14935  0.48014  0.13236  Biso   1.000  I
  I2       1.0000 0.85065  0.51986  0.86764  Biso   1.000  I
  I3       1.0000 0.38480  0.51194  0.38542  Biso   1.000  I
  I4       1.0000 0.61520  0.48806  0.61458  Biso   1.000  I
  I5       1.0000 0.51928  0.80663  0.24864  Biso   1.000  I
  I6       1.0000 0.48072  0.19337  0.75136  Biso   1.000  I
  I7       1.0000 0.18765  0.76939  0.37601  Biso   1.000  I
  I8       1.0000 0.81235  0.23061  0.62399  Biso   1.000  I
  S1       1.0000 0.20530  0.83583  0.14970  Biso   1.000  S
  S2       1.0000 0.79470  0.16417  0.85030  Biso   1.000  S
  S3       1.0000 0.57814  0.87738  0.49705  Biso   1.000  S
  S4       1.0000 0.42186  0.12262  0.50295  Biso   1.000  S
  O1       1.0000 0.25580  0.66350  0.92867  Biso   1.000  O
  O2       1.0000 0.74420  0.33650  0.07133  Biso   1.000  O
  O3       1.0000 0.35010  0.80820  0.66285  Biso   1.000  O
  O4       1.0000 0.64990  0.19180  0.33715  Biso   1.000  O
  N1       1.0000 0.49800  0.50990  0.82090  Biso   1.000  N
  N2       1.0000 0.50200  0.49010  0.17910  Biso   1.000  N
  N3       1.0000 0.99430  0.57150  0.68090  Biso   1.000  N
  N4       1.0000 0.00570  0.42850  0.31910  Biso   1.000  N
  C1       1.0000 0.93310  0.72980  0.13540  Biso   1.000  C
  C2       1.0000 0.06690  0.27020  0.86460  Biso   1.000  C
  H1       1.0000 0.95200  0.68060  0.17210  Biso   1.000  H
  H2       1.0000 0.04800  0.31940  0.82790  Biso   1.000  H
  H3       1.0000 0.91990  0.68370  0.07450  Biso   1.000  H
  H4       1.0000 0.08010  0.31630  0.92550  Biso   1.000  H
  C3       1.0000 0.80720  0.74980  0.14820  Biso   1.000  C
  C4       1.0000 0.19280  0.25020  0.85180  Biso   1.000  C
  H5       1.0000 0.73180  0.67010  0.12850  Biso   1.000  H
  H6       1.0000 0.26820  0.32990  0.87150  Biso   1.000  H
  H7       1.0000 0.81640  0.78640  0.21040  Biso   1.000  H
  H8       1.0000 0.18360  0.21360  0.78960  Biso   1.000  H
  C5       1.0000 0.77980  0.83290  0.09840  Biso   1.000  C
  C6       1.0000 0.22020  0.16710  0.90160  Biso   1.000  C
  H9       1.0000 0.70150  0.84850  0.11100  Biso   1.000  H
  H10      1.0000 0.29850  0.15150  0.88900  Biso   1.000  H
  H11      1.0000 0.76020  0.79200  0.03570  Biso   1.000  H
  H12      1.0000 0.23980  0.20800  0.96430  Biso   1.000  H
  C7       1.0000 0.89730  0.95370  0.12250  Biso   1.000  C
  C8       1.0000 0.10270  0.04630  0.87750  Biso   1.000  C
  H13      1.0000 0.87900  0.00410  0.08670  Biso   1.000  H
  H14      1.0000 0.12100  0.99590  0.91330  Biso   1.000  H
  H15      1.0000 0.91080  0.99860  0.18370  Biso   1.000  H
  H16      1.0000 0.08920  0.00140  0.81630  Biso   1.000  H
  C9       1.0000 0.02140  0.93320  0.10900  Biso   1.000  C
  C10      1.0000 0.97860  0.06680  0.89100  Biso   1.000  C
  H17      1.0000 0.01130  0.89640  0.04670  Biso   1.000  H
  H18      1.0000 0.98870  0.10360  0.95330  Biso   1.000  H
  H19      1.0000 0.09700  0.01270  0.12830  Biso   1.000  H
  H20      1.0000 0.90300  0.98730  0.87170  Biso   1.000  H
  C11      1.0000 0.04950  0.85040  0.15850  Biso   1.000  C
  C12      1.0000 0.95050  0.14960  0.84150  Biso   1.000  C
  H21      1.0000 0.06020  0.89200  0.22070  Biso   1.000  H
  H22      1.0000 0.93980  0.10800  0.77930  Biso   1.000  H
  C13      1.0000 0.17080  0.75220  0.03690  Biso   1.000  C
  C14      1.0000 0.82920  0.24780  0.96310  Biso   1.000  C
  H23      1.0000 0.09410  0.67440  0.02290  Biso   1.000  H
  H24      1.0000 0.90590  0.32560  0.97710  Biso   1.000  H
  H25      1.0000 0.14970  0.80060  0.00030  Biso   1.000  H
  H26      1.0000 0.85030  0.19940  0.99970  Biso   1.000  H
  C15      1.0000 0.29080  0.72710  0.01960  Biso   1.000  C
  C16      1.0000 0.70920  0.27290  0.98040  Biso   1.000  C
  H27      1.0000 0.36850  0.80430  0.03380  Biso   1.000  H
  H28      1.0000 0.63150  0.19570  0.96620  Biso   1.000  H
  H29      1.0000 0.31090  0.67610  0.05420  Biso   1.000  H
  H30      1.0000 0.68910  0.32390  0.94580  Biso   1.000  H
  C17      1.0000 0.33840  0.61380  0.89790  Biso   1.000  C
  C18      1.0000 0.66160  0.38620  0.10210  Biso   1.000  C
  C19      1.0000 0.30270  0.55220  0.81060  Biso   1.000  C
  C20      1.0000 0.69730  0.44780  0.18940  Biso   1.000  C
  H31      1.0000 0.22280  0.54450  0.77550  Biso   1.000  H
  H32      1.0000 0.77720  0.45550  0.22450  Biso   1.000  H
  C21      1.0000 0.38350  0.50270  0.77540  Biso   1.000  C
  C22      1.0000 0.61650  0.49730  0.22460  Biso   1.000  C
  H33      1.0000 0.35740  0.46060  0.71540  Biso   1.000  H
  H34      1.0000 0.64260  0.53940  0.28460  Biso   1.000  H
  C23      1.0000 0.53020  0.56800  0.90540  Biso   1.000  C
  C24      1.0000 0.46980  0.43200  0.09460  Biso   1.000  C
  H35      1.0000 0.61020  0.57330  0.93910  Biso   1.000  H
  H36      1.0000 0.38980  0.42670  0.06090  Biso   1.000  H
  C25      1.0000 0.45450  0.62050  0.94670  Biso   1.000  C
  C26      1.0000 0.54550  0.37950  0.05330  Biso   1.000  C
  H37      1.0000 0.48130  0.66020  0.00710  Biso   1.000  H
  H38      1.0000 0.51870  0.33980  0.99290  Biso   1.000  H
  C27      1.0000 0.75090  0.78250  0.44580  Biso   1.000  C
  C28      1.0000 0.24910  0.21750  0.55420  Biso   1.000  C
  H39      1.0000 0.67890  0.72700  0.39490  Biso   1.000  H
  H40      1.0000 0.32110  0.27300  0.60510  Biso   1.000  H
  H41      1.0000 0.79430  0.86000  0.43310  Biso   1.000  H
  H42      1.0000 0.20570  0.14000  0.56690  Biso   1.000  H
  C29      1.0000 0.84980  0.72530  0.46240  Biso   1.000  C
  C30      1.0000 0.15020  0.27470  0.53760  Biso   1.000  C
  H43      1.0000 0.88750  0.71200  0.41160  Biso   1.000  H
  H44      1.0000 0.11250  0.28800  0.58840  Biso   1.000  H
  H45      1.0000 0.80460  0.64490  0.47060  Biso   1.000  H
  H46      1.0000 0.19540  0.35510  0.52940  Biso   1.000  H
  C31      1.0000 0.96080  0.80640  0.54230  Biso   1.000  C
  C32      1.0000 0.03920  0.19360  0.45770  Biso   1.000  C
  H47      1.0000 0.02140  0.76490  0.55340  Biso   1.000  H
  H48      1.0000 0.97860  0.23510  0.44660  Biso   1.000  H
  H49      1.0000 0.01150  0.88400  0.53220  Biso   1.000  H
  H50      1.0000 0.98850  0.11600  0.46780  Biso   1.000  H
  C33      1.0000 0.90360  0.83290  0.62060  Biso   1.000  C
  C34      1.0000 0.09640  0.16710  0.37940  Biso   1.000  C
  H51      1.0000 0.86170  0.75600  0.63440  Biso   1.000  H
  H52      1.0000 0.13830  0.24400  0.36560  Biso   1.000  H
  H53      1.0000 0.97580  0.88960  0.67100  Biso   1.000  H
  H54      1.0000 0.02420  0.11040  0.32900  Biso   1.000  H
  C35      1.0000 0.80230  0.88870  0.60460  Biso   1.000  C
  C36      1.0000 0.19770  0.11130  0.39540  Biso   1.000  C
  H55      1.0000 0.76330  0.89950  0.65510  Biso   1.000  H
  H56      1.0000 0.23670  0.10050  0.34490  Biso   1.000  H
  H57      1.0000 0.84590  0.97000  0.59730  Biso   1.000  H
  H58      1.0000 0.15410  0.03000  0.40270  Biso   1.000  H
  C37      1.0000 0.69390  0.80740  0.52420  Biso   1.000  C
  C38      1.0000 0.30610  0.19260  0.47580  Biso   1.000  C
  H59      1.0000 0.64490  0.72810  0.53410  Biso   1.000  H
  H60      1.0000 0.35510  0.27190  0.46590  Biso   1.000  H
  C39      1.0000 0.50680  0.89470  0.58940  Biso   1.000  C
  C40      1.0000 0.49320  0.10530  0.41060  Biso   1.000  C
  H61      1.0000 0.57820  0.93040  0.64280  Biso   1.000  H
  H62      1.0000 0.42180  0.06960  0.35720  Biso   1.000  H
  H63      1.0000 0.46240  0.95250  0.58770  Biso   1.000  H
  H64      1.0000 0.53760  0.04750  0.41230  Biso   1.000  H
  C41      1.0000 0.40860  0.77550  0.59260  Biso   1.000  C
  C42      1.0000 0.59140  0.22450  0.40740  Biso   1.000  C
  H65      1.0000 0.34060  0.73390  0.53750  Biso   1.000  H
  H66      1.0000 0.65940  0.26610  0.46250  Biso   1.000  H
  H67      1.0000 0.45330  0.72060  0.60330  Biso   1.000  H
  H68      1.0000 0.54670  0.27940  0.39670  Biso   1.000  H
  C43      1.0000 0.23500  0.72680  0.66510  Biso   1.000  C
  C44      1.0000 0.76500  0.27320  0.33490  Biso   1.000  C
  C45      1.0000 0.17630  0.76420  0.72930  Biso   1.000  C
  C46      1.0000 0.82370  0.23580  0.27070  Biso   1.000  C
  H69      1.0000 0.21740  0.84390  0.76900  Biso   1.000  H
  H70      1.0000 0.78260  0.15610  0.23100  Biso   1.000  H
  C47      1.0000 0.05880  0.68570  0.73510  Biso   1.000  C
  C48      1.0000 0.94120  0.31430  0.26490  Biso   1.000  C
  H71      1.0000 0.02030  0.71310  0.77970  Biso   1.000  H
  H72      1.0000 0.97970  0.28690  0.22030  Biso   1.000  H
  C49      1.0000 0.05250  0.53660  0.61950  Biso   1.000  C
  C50      1.0000 0.94750  0.46340  0.38050  Biso   1.000  C
  H73      1.0000 0.00930  0.45620  0.58100  Biso   1.000  H
  H74      1.0000 0.99070  0.54380  0.41900  Biso   1.000  H
  C51      1.0000 0.17080  0.60880  0.60820  Biso   1.000  C
  C52      1.0000 0.82920  0.39120  0.39180  Biso   1.000  C
  H75      1.0000 0.20740  0.57930  0.56320  Biso   1.000  H
  H76      1.0000 0.79260  0.42070  0.43680  Biso   1.000  H
  Cl1      1.0000 0.37600  0.20320  0.21237  Biso   1.000  Cl
  Cl2      1.0000 0.62400  0.79680  0.78763  Biso   1.000  Cl
  Cl3      1.0000 0.38656  0.06397  0.04680  Biso   1.000  Cl
  Cl4      1.0000 0.61344  0.93603  0.95320  Biso   1.000  Cl
  C53      1.0000 0.45720  0.12110  0.15720  Biso   1.000  C
  C54      1.0000 0.54280  0.87890  0.84280  Biso   1.000  C
  H77      1.0000 0.55070  0.17500  0.16710  Biso   1.000  H
  H78      1.0000 0.44930  0.82500  0.83290  Biso   1.000  H
  H79      1.0000 0.45440  0.05250  0.18050  Biso   1.000  H
  H80      1.0000 0.54560  0.94750  0.81950  Biso   1.000  H
