data_image0
_cell_length_a       11.0794
_cell_length_b       12.362
_cell_length_c       16.6793
_cell_angle_alpha    106.755
_cell_angle_beta     97.839
_cell_angle_gamma    104.827

_symmetry_space_group_name_H-M    "P 1"
_symmetry_int_tables_number       1

loop_
  _symmetry_equiv_pos_as_xyz
  'x, y, z'

loop_
  _atom_site_label
  _atom_site_occupancy
  _atom_site_fract_x
  _atom_site_fract_y
  _atom_site_fract_z
  _atom_site_thermal_displace_type
  _atom_site_B_iso_or_equiv
  _atom_site_type_symbol
  Cu1      1.0000 0.23674  0.20550  0.23459  Biso   1.000  Cu
  Cu2      1.0000 0.76326  0.79450  0.76541  Biso   1.000  Cu
  Cu3      1.0000 0.39648  0.23497  0.38120  Biso   1.000  Cu
  Cu4      1.0000 0.60352  0.76503  0.61880  Biso   1.000  Cu
  Cu5      1.0000 0.38122  0.06047  0.23948  Biso   1.000  Cu
  Cu6      1.0000 0.61878  0.93953  0.76052  Biso   1.000  Cu
  Cu7      1.0000 0.17574  0.04537  0.31061  Biso   1.000  Cu
  Cu8      1.0000 0.82426  0.95463  0.68939  Biso   1.000  Cu
  I1       1.0000 0.14891  0.97589  0.13620  Biso   1.000  I
  I2       1.0000 0.85109  0.02411  0.86380  Biso   1.000  I
  I3       1.0000 0.38526  0.01337  0.38664  Biso   1.000  I
  I4       1.0000 0.61474  0.98663  0.61336  Biso   1.000  I
  I5       1.0000 0.49326  0.29069  0.25378  Biso   1.000  I
  I6       1.0000 0.50674  0.70931  0.74622  Biso   1.000  I
  I7       1.0000 0.16478  0.26664  0.38215  Biso   1.000  I
  I8       1.0000 0.83522  0.73336  0.61785  Biso   1.000  I
  S1       1.0000 0.54270  0.37228  0.50305  Biso   1.000  S
  S2       1.0000 0.45730  0.62772  0.49695  Biso   1.000  S
  S3       1.0000 0.17551  0.31936  0.15980  Biso   1.000  S
  S4       1.0000 0.82449  0.68064  0.84020  Biso   1.000  S
  O1       1.0000 0.24060  0.15830  0.93482  Biso   1.000  O
  O2       1.0000 0.75940  0.84170  0.06518  Biso   1.000  O
  O3       1.0000 0.31710  0.29940  0.66139  Biso   1.000  O
  O4       1.0000 0.68290  0.70060  0.33861  Biso   1.000  O
  N1       1.0000 0.49970  0.01750  0.81989  Biso   1.000  N
  N2       1.0000 0.50030  0.98250  0.18011  Biso   1.000  N
  N3       1.0000 0.98740  0.06400  0.67731  Biso   1.000  N
  N4       1.0000 0.01260  0.93600  0.32269  Biso   1.000  N
  C1       1.0000 0.91070  0.21280  0.13780  Biso   1.000  C
  C2       1.0000 0.08930  0.78720  0.86220  Biso   1.000  C
  H1       1.0000 0.93180  0.15910  0.16750  Biso   1.000  H
  H2       1.0000 0.06820  0.84090  0.83250  Biso   1.000  H
  H3       1.0000 0.90310  0.17500  0.07550  Biso   1.000  H
  H4       1.0000 0.09690  0.82500  0.92450  Biso   1.000  H
  C3       1.0000 0.78270  0.23060  0.15270  Biso   1.000  C
  C4       1.0000 0.21730  0.76940  0.84730  Biso   1.000  C
  H5       1.0000 0.71370  0.15350  0.12700  Biso   1.000  H
  H6       1.0000 0.28630  0.84650  0.87300  Biso   1.000  H
  H7       1.0000 0.78730  0.25960  0.21530  Biso   1.000  H
  H8       1.0000 0.21270  0.74040  0.78470  Biso   1.000  H
  C5       1.0000 0.75030  0.31960  0.11330  Biso   1.000  C
  C6       1.0000 0.24970  0.68040  0.88670  Biso   1.000  C
  H9       1.0000 0.66940  0.33220  0.12640  Biso   1.000  H
  H10      1.0000 0.33060  0.66780  0.87360  Biso   1.000  H
  H11      1.0000 0.73780  0.28760  0.05010  Biso   1.000  H
  H12      1.0000 0.26220  0.71240  0.94990  Biso   1.000  H
  C7       1.0000 0.85820  0.43770  0.14920  Biso   1.000  C
  C8       1.0000 0.14180  0.56230  0.85080  Biso   1.000  C
  H13      1.0000 0.83700  0.49370  0.12180  Biso   1.000  H
  H14      1.0000 0.16300  0.50630  0.87820  Biso   1.000  H
  H15      1.0000 0.86560  0.47250  0.21180  Biso   1.000  H
  H16      1.0000 0.13440  0.52750  0.78820  Biso   1.000  H
  C9       1.0000 0.98600  0.42260  0.13370  Biso   1.000  C
  C10      1.0000 0.01400  0.57740  0.86630  Biso   1.000  C
  H17      1.0000 0.05440  0.50000  0.16060  Biso   1.000  H
  H18      1.0000 0.94560  0.50000  0.83940  Biso   1.000  H
  H19      1.0000 0.98170  0.39570  0.07110  Biso   1.000  H
  H20      1.0000 0.01830  0.60430  0.92890  Biso   1.000  H
  C11      1.0000 0.01820  0.33150  0.17140  Biso   1.000  C
  C12      1.0000 0.98180  0.66850  0.82860  Biso   1.000  C
  H21      1.0000 0.02420  0.36420  0.23460  Biso   1.000  H
  H22      1.0000 0.97580  0.63580  0.76540  Biso   1.000  H
  C13      1.0000 0.14580  0.23560  0.04570  Biso   1.000  C
  C14      1.0000 0.85420  0.76440  0.95430  Biso   1.000  C
  H23      1.0000 0.08010  0.15740  0.03150  Biso   1.000  H
  H24      1.0000 0.91990  0.84260  0.96850  Biso   1.000  H
  H25      1.0000 0.11390  0.27940  0.01090  Biso   1.000  H
  H26      1.0000 0.88610  0.72060  0.98910  Biso   1.000  H
  C15      1.0000 0.27040  0.21840  0.02610  Biso   1.000  C
  C16      1.0000 0.72960  0.78160  0.97390  Biso   1.000  C
  H27      1.0000 0.33800  0.29600  0.04250  Biso   1.000  H
  H28      1.0000 0.66200  0.70400  0.95750  Biso   1.000  H
  H29      1.0000 0.30000  0.16960  0.05740  Biso   1.000  H
  H30      1.0000 0.70000  0.83040  0.94260  Biso   1.000  H
  C17      1.0000 0.32870  0.11420  0.90110  Biso   1.000  C
  C18      1.0000 0.67130  0.88580  0.09890  Biso   1.000  C
  C19      1.0000 0.29750  0.05550  0.81310  Biso   1.000  C
  C20      1.0000 0.70250  0.94450  0.18690  Biso   1.000  C
  H31      1.0000 0.21720  0.04700  0.77930  Biso   1.000  H
  H32      1.0000 0.78280  0.95300  0.22070  Biso   1.000  H
  C21      1.0000 0.38430  0.01000  0.77600  Biso   1.000  C
  C22      1.0000 0.61570  0.99000  0.22400  Biso   1.000  C
  H33      1.0000 0.36230  0.97070  0.71550  Biso   1.000  H
  H34      1.0000 0.63770  0.02930  0.28450  Biso   1.000  H
  C23      1.0000 0.52730  0.07340  0.90420  Biso   1.000  C
  C24      1.0000 0.47270  0.92660  0.09580  Biso   1.000  C
  H35      1.0000 0.60760  0.07910  0.93660  Biso   1.000  H
  H36      1.0000 0.39240  0.92090  0.06340  Biso   1.000  H
  C25      1.0000 0.44710  0.12370  0.94800  Biso   1.000  C
  C26      1.0000 0.55290  0.87630  0.05200  Biso   1.000  C
  H37      1.0000 0.47200  0.16360  0.00840  Biso   1.000  H
  H38      1.0000 0.52800  0.83640  0.99160  Biso   1.000  H
  C27      1.0000 0.72910  0.28220  0.45480  Biso   1.000  C
  C28      1.0000 0.27090  0.71780  0.54520  Biso   1.000  C
  H39      1.0000 0.66470  0.22790  0.40190  Biso   1.000  H
  H40      1.0000 0.33530  0.77210  0.59810  Biso   1.000  H
  H41      1.0000 0.76690  0.35810  0.44550  Biso   1.000  H
  H42      1.0000 0.23310  0.64190  0.55450  Biso   1.000  H
  C29      1.0000 0.83380  0.22740  0.47220  Biso   1.000  C
  C30      1.0000 0.16620  0.77260  0.52780  Biso   1.000  C
  H43      1.0000 0.79460  0.14820  0.47630  Biso   1.000  H
  H44      1.0000 0.20540  0.85180  0.52370  Biso   1.000  H
  H45      1.0000 0.87690  0.21630  0.42360  Biso   1.000  H
  H46      1.0000 0.12310  0.78370  0.57640  Biso   1.000  H
  C31      1.0000 0.93180  0.30440  0.55440  Biso   1.000  C
  C32      1.0000 0.06820  0.69560  0.44560  Biso   1.000  C
  H47      1.0000 0.97770  0.38070  0.54840  Biso   1.000  H
  H48      1.0000 0.02230  0.61930  0.45160  Biso   1.000  H
  H49      1.0000 0.99550  0.26400  0.56560  Biso   1.000  H
  H50      1.0000 0.00450  0.73600  0.43440  Biso   1.000  H
  C33      1.0000 0.86660  0.32830  0.62940  Biso   1.000  C
  C34      1.0000 0.13340  0.67170  0.37060  Biso   1.000  C
  H51      1.0000 0.82850  0.25260  0.63890  Biso   1.000  H
  H52      1.0000 0.17150  0.74740  0.36110  Biso   1.000  H
  H53      1.0000 0.93150  0.38220  0.68220  Biso   1.000  H
  H54      1.0000 0.06850  0.61780  0.31780  Biso   1.000  H
  C35      1.0000 0.76240  0.38400  0.61340  Biso   1.000  C
  C36      1.0000 0.23760  0.61600  0.38660  Biso   1.000  C
  H55      1.0000 0.80120  0.46320  0.60930  Biso   1.000  H
  H56      1.0000 0.19880  0.53680  0.39070  Biso   1.000  H
  H57      1.0000 0.71950  0.39460  0.66210  Biso   1.000  H
  H58      1.0000 0.28050  0.60540  0.33790  Biso   1.000  H
  C37      1.0000 0.66410  0.30480  0.53030  Biso   1.000  C
  C38      1.0000 0.33590  0.69520  0.46970  Biso   1.000  C
  H59      1.0000 0.62090  0.22710  0.53660  Biso   1.000  H
  H60      1.0000 0.37910  0.77290  0.46340  Biso   1.000  H
  C39      1.0000 0.46220  0.38630  0.59090  Biso   1.000  C
  C40      1.0000 0.53780  0.61370  0.40910  Biso   1.000  C
  H61      1.0000 0.52730  0.42620  0.64580  Biso   1.000  H
  H62      1.0000 0.47270  0.57380  0.35420  Biso   1.000  H
  H63      1.0000 0.40760  0.43750  0.58710  Biso   1.000  H
  H64      1.0000 0.59240  0.56250  0.41290  Biso   1.000  H
  C41      1.0000 0.38030  0.26880  0.59160  Biso   1.000  C
  C42      1.0000 0.61970  0.73120  0.40840  Biso   1.000  C
  H65      1.0000 0.31670  0.22510  0.53620  Biso   1.000  H
  H66      1.0000 0.68330  0.77490  0.46380  Biso   1.000  H
  H67      1.0000 0.43380  0.21890  0.60170  Biso   1.000  H
  H68      1.0000 0.56620  0.78110  0.39830  Biso   1.000  H
  C43      1.0000 0.21120  0.21740  0.66330  Biso   1.000  C
  C44      1.0000 0.78880  0.78260  0.33670  Biso   1.000  C
  C45      1.0000 0.14880  0.25440  0.72750  Biso   1.000  C
  C46      1.0000 0.85120  0.74560  0.27250  Biso   1.000  C
  H69      1.0000 0.18140  0.33290  0.76780  Biso   1.000  H
  H70      1.0000 0.81860  0.66710  0.23220  Biso   1.000  H
  C47      1.0000 0.03970  0.17640  0.73230  Biso   1.000  C
  C48      1.0000 0.96030  0.82360  0.26770  Biso   1.000  C
  H71      1.0000 0.99830  0.20310  0.77700  Biso   1.000  H
  H72      1.0000 0.00170  0.79690  0.22300  Biso   1.000  H
  C49      1.0000 0.04960  0.02930  0.61610  Biso   1.000  C
  C50      1.0000 0.95040  0.97070  0.38390  Biso   1.000  C
  H73      1.0000 0.01500  0.95020  0.57680  Biso   1.000  H
  H74      1.0000 0.98500  0.04980  0.42320  Biso   1.000  H
  C51      1.0000 0.16110  0.10120  0.60660  Biso   1.000  C
  C52      1.0000 0.83890  0.89880  0.39340  Biso   1.000  C
  H75      1.0000 0.20220  0.07190  0.56240  Biso   1.000  H
  H76      1.0000 0.79780  0.92810  0.43760  Biso   1.000  H
  Cl1      1.0000 0.39815  0.71792  0.21529  Biso   1.000  Cl
  Cl2      1.0000 0.60185  0.28208  0.78471  Biso   1.000  Cl
  Cl3      1.0000 0.54739  0.59226  0.12033  Biso   1.000  Cl
  Cl4      1.0000 0.45261  0.40774  0.87967  Biso   1.000  Cl
  Cl5      1.0000 0.28296  0.54087  0.04660  Biso   1.000  Cl
  Cl6      1.0000 0.71704  0.45913  0.95340  Biso   1.000  Cl
  C53      1.0000 0.39520  0.58480  0.14370  Biso   1.000  C
  C54      1.0000 0.60480  0.41520  0.85630  Biso   1.000  C
  H77      1.0000 0.37220  0.52220  0.17080  Biso   1.000  H
  H78      1.0000 0.62780  0.47780  0.82920  Biso   1.000  H
