data_image0
_cell_length_a       8.2253
_cell_length_b       9.7915
_cell_length_c       10.6017
_cell_angle_alpha    66.374
_cell_angle_beta     87.827
_cell_angle_gamma    76.42

_symmetry_space_group_name_H-M    "P 1"
_symmetry_int_tables_number       1

loop_
  _symmetry_equiv_pos_as_xyz
  'x, y, z'

loop_
  _atom_site_label
  _atom_site_occupancy
  _atom_site_fract_x
  _atom_site_fract_y
  _atom_site_fract_z
  _atom_site_thermal_displace_type
  _atom_site_B_iso_or_equiv
  _atom_site_type_symbol
  Cu1      1.0000 0.59421  0.84100  0.57033  Biso   1.000  Cu
  Cu2      1.0000 0.40579  0.15900  0.42967  Biso   1.000  Cu
  I1       1.0000 0.71362  0.08661  0.53106  Biso   1.000  I
  I2       1.0000 0.28638  0.91339  0.46894  Biso   1.000  I
  S1       1.0000 0.65701  0.68115  0.80293  Biso   1.000  S
  S2       1.0000 0.34299  0.31885  0.19707  Biso   1.000  S
  O1       1.0000 0.99630  0.49490  0.77260  Biso   1.000  O
  O2       1.0000 0.00370  0.50510  0.22740  Biso   1.000  O
  N1       1.0000 0.26580  0.27730  0.53710  Biso   1.000  N
  N2       1.0000 0.73420  0.72270  0.46290  Biso   1.000  N
  C1       1.0000 0.35110  0.77290  0.89000  Biso   1.000  C
  C2       1.0000 0.64890  0.22710  0.11000  Biso   1.000  C
  H1       1.0000 0.34310  0.66480  0.92420  Biso   1.000  H
  H2       1.0000 0.65690  0.33520  0.07580  Biso   1.000  H
  H3       1.0000 0.31100  0.82460  0.79150  Biso   1.000  H
  H4       1.0000 0.68900  0.17540  0.20850  Biso   1.000  H
  C3       1.0000 0.23940  0.85280  0.97220  Biso   1.000  C
  C4       1.0000 0.76060  0.14720  0.02780  Biso   1.000  C
  H5       1.0000 0.23860  0.96330  0.93220  Biso   1.000  H
  H6       1.0000 0.76140  0.03670  0.06780  Biso   1.000  H
  H7       1.0000 0.12300  0.84360  0.96540  Biso   1.000  H
  H8       1.0000 0.87700  0.15640  0.03460  Biso   1.000  H
  C5       1.0000 0.30310  0.78100  0.12310  Biso   1.000  C
  C6       1.0000 0.69690  0.21900  0.87690  Biso   1.000  C
  H9       1.0000 0.23430  0.83870  0.17260  Biso   1.000  H
  H10      1.0000 0.76570  0.16130  0.82740  Biso   1.000  H
  H11      1.0000 0.29100  0.67390  0.16580  Biso   1.000  H
  H12      1.0000 0.70900  0.32610  0.83420  Biso   1.000  H
  C7       1.0000 0.48260  0.78210  0.13760  Biso   1.000  C
  C8       1.0000 0.51740  0.21790  0.86240  Biso   1.000  C
  H13      1.0000 0.52200  0.72830  0.23620  Biso   1.000  H
  H14      1.0000 0.47800  0.27170  0.76380  Biso   1.000  H
  H15      1.0000 0.49210  0.88960  0.10570  Biso   1.000  H
  H16      1.0000 0.50790  0.11040  0.89430  Biso   1.000  H
  C9       1.0000 0.59490  0.70470  0.05490  Biso   1.000  C
  C10      1.0000 0.40510  0.29530  0.94510  Biso   1.000  C
  H17      1.0000 0.71090  0.71420  0.06250  Biso   1.000  H
  H18      1.0000 0.28910  0.28580  0.93750  Biso   1.000  H
  H19      1.0000 0.59640  0.59400  0.09370  Biso   1.000  H
  H20      1.0000 0.40360  0.40600  0.90630  Biso   1.000  H
  C11      1.0000 0.53240  0.77750  0.90390  Biso   1.000  C
  C12      1.0000 0.46760  0.22250  0.09610  Biso   1.000  C
  H21      1.0000 0.53940  0.88720  0.86440  Biso   1.000  H
  H22      1.0000 0.46060  0.11280  0.13560  Biso   1.000  H
  C13      1.0000 0.86500  0.69930  0.83650  Biso   1.000  C
  C14      1.0000 0.13500  0.30070  0.16350  Biso   1.000  C
  H23      1.0000 0.85940  0.80700  0.82110  Biso   1.000  H
  H24      1.0000 0.14060  0.19300  0.17890  Biso   1.000  H
  H25      1.0000 0.90330  0.63340  0.93410  Biso   1.000  H
  H26      1.0000 0.09670  0.36660  0.06590  Biso   1.000  H
  C15      1.0000 0.98980  0.65310  0.74390  Biso   1.000  C
  C16      1.0000 0.01020  0.34690  0.25610  Biso   1.000  C
  H27      1.0000 0.95380  0.71880  0.64580  Biso   1.000  H
  H28      1.0000 0.04620  0.28120  0.35420  Biso   1.000  H
  H29      1.0000 0.10170  0.66450  0.76290  Biso   1.000  H
  H30      1.0000 0.89830  0.33550  0.23710  Biso   1.000  H
  C17      1.0000 0.08870  0.43100  0.69210  Biso   1.000  C
  C18      1.0000 0.91130  0.56900  0.30790  Biso   1.000  C
  C19      1.0000 0.08510  0.28040  0.71840  Biso   1.000  C
  C20      1.0000 0.91490  0.71960  0.28160  Biso   1.000  C
  H31      1.0000 0.02240  0.22690  0.79060  Biso   1.000  H
  H32      1.0000 0.97760  0.77310  0.20940  Biso   1.000  H
  C21      1.0000 0.17280  0.20950  0.63900  Biso   1.000  C
  C22      1.0000 0.82720  0.79050  0.36100  Biso   1.000  C
  H33      1.0000 0.16700  0.10760  0.65740  Biso   1.000  H
  H34      1.0000 0.83300  0.89240  0.34260  Biso   1.000  H
  C23      1.0000 0.27050  0.42140  0.51550  Biso   1.000  C
  C24      1.0000 0.72950  0.57860  0.48450  Biso   1.000  C
  H35      1.0000 0.33730  0.47100  0.44480  Biso   1.000  H
  H36      1.0000 0.66270  0.52900  0.55520  Biso   1.000  H
  C25      1.0000 0.18580  0.50260  0.58810  Biso   1.000  C
  C26      1.0000 0.81420  0.49740  0.41190  Biso   1.000  C
  H37      1.0000 0.19360  0.60450  0.56750  Biso   1.000  H
  H38      1.0000 0.80640  0.39550  0.43250  Biso   1.000  H
