data_image0
_cell_length_a       8.247
_cell_length_b       10.828
_cell_length_c       11.082
_cell_angle_alpha    115.098
_cell_angle_beta     93.741
_cell_angle_gamma    95.292

_symmetry_space_group_name_H-M    "P 1"
_symmetry_int_tables_number       1

loop_
  _symmetry_equiv_pos_as_xyz
  'x, y, z'

loop_
  _atom_site_label
  _atom_site_occupancy
  _atom_site_fract_x
  _atom_site_fract_y
  _atom_site_fract_z
  _atom_site_thermal_displace_type
  _atom_site_B_iso_or_equiv
  _atom_site_type_symbol
  Cu1      1.0000 0.97147  0.56521  0.13643  Biso   1.000  Cu
  Cu2      1.0000 0.02853  0.43479  0.86357  Biso   1.000  Cu
  I1       1.0000 0.78690  0.33513  0.95051  Biso   1.000  I
  I2       1.0000 0.21310  0.66487  0.04949  Biso   1.000  I
  S1       1.0000 0.80433  0.72824  0.24569  Biso   1.000  S
  S2       1.0000 0.19567  0.27176  0.75431  Biso   1.000  S
  O1       1.0000 0.74230  0.63602  0.45520  Biso   1.000  O
  O2       1.0000 0.25770  0.36398  0.54480  Biso   1.000  O
  N1       1.0000 0.92690  0.49480  0.72380  Biso   1.000  N
  N2       1.0000 0.07310  0.50520  0.27620  Biso   1.000  N
  C1       1.0000 0.69050  0.71710  0.99720  Biso   1.000  C
  C2       1.0000 0.30950  0.28290  0.00280  Biso   1.000  C
  H1       1.0000 0.61220  0.63520  0.98130  Biso   1.000  H
  H2       1.0000 0.38780  0.36480  0.01870  Biso   1.000  H
  H3       1.0000 0.79480  0.68530  0.96440  Biso   1.000  H
  H4       1.0000 0.20520  0.31470  0.03560  Biso   1.000  H
  C3       1.0000 0.72020  0.81120  0.14630  Biso   1.000  C
  C4       1.0000 0.27980  0.18880  0.85370  Biso   1.000  C
  H5       1.0000 0.61250  0.83900  0.17740  Biso   1.000  H
  H6       1.0000 0.38750  0.16100  0.82260  Biso   1.000  H
  C5       1.0000 0.73210  0.92490  0.94880  Biso   1.000  C
  C6       1.0000 0.26790  0.07510  0.05120  Biso   1.000  C
  H7       1.0000 0.83790  0.90240  0.91290  Biso   1.000  H
  H8       1.0000 0.16210  0.09760  0.08710  Biso   1.000  H
  H9       1.0000 0.67970  0.97460  0.90300  Biso   1.000  H
  H10      1.0000 0.32030  0.02540  0.09700  Biso   1.000  H
  C7       1.0000 0.62170  0.79220  0.91980  Biso   1.000  C
  C8       1.0000 0.37830  0.20780  0.08020  Biso   1.000  C
  H11      1.0000 0.61030  0.73120  0.82250  Biso   1.000  H
  H12      1.0000 0.38970  0.26880  0.17750  Biso   1.000  H
  H13      1.0000 0.51130  0.81400  0.94500  Biso   1.000  H
  H14      1.0000 0.48870  0.18600  0.05500  Biso   1.000  H
  C9       1.0000 0.65080  0.54680  0.32880  Biso   1.000  C
  C10      1.0000 0.34920  0.45320  0.67120  Biso   1.000  C
  H15      1.0000 0.54700  0.50320  0.34240  Biso   1.000  H
  H16      1.0000 0.45300  0.49680  0.65760  Biso   1.000  H
  H17      1.0000 0.71500  0.47340  0.27550  Biso   1.000  H
  H18      1.0000 0.28500  0.52660  0.72450  Biso   1.000  H
  C11      1.0000 0.83450  0.94100  0.17410  Biso   1.000  C
  C12      1.0000 0.16550  0.05900  0.82590  Biso   1.000  C
  H19      1.0000 0.94300  0.91670  0.14580  Biso   1.000  H
  H20      1.0000 0.05700  0.08330  0.85420  Biso   1.000  H
  H21      1.0000 0.84950  0.00210  0.27150  Biso   1.000  H
  H22      1.0000 0.15050  0.99790  0.72850  Biso   1.000  H
  C13      1.0000 0.79710  0.58190  0.53780  Biso   1.000  C
  C14      1.0000 0.20290  0.41810  0.46220  Biso   1.000  C
  C15      1.0000 0.61590  0.63400  0.25750  Biso   1.000  C
  C16      1.0000 0.38410  0.36600  0.74250  Biso   1.000  C
  H23      1.0000 0.54130  0.70000  0.30660  Biso   1.000  H
  H24      1.0000 0.45870  0.30000  0.69340  Biso   1.000  H
  H25      1.0000 0.56040  0.57470  0.16620  Biso   1.000  H
  H26      1.0000 0.43960  0.42530  0.83380  Biso   1.000  H
  C17      1.0000 0.96590  0.62320  0.73630  Biso   1.000  C
  C18      1.0000 0.03410  0.37680  0.26370  Biso   1.000  C
  H27      1.0000 0.04040  0.68530  0.81110  Biso   1.000  H
  H28      1.0000 0.95960  0.31470  0.18890  Biso   1.000  H
  C19      1.0000 0.90530  0.66980  0.64850  Biso   1.000  C
  C20      1.0000 0.09470  0.33020  0.35150  Biso   1.000  C
  H29      1.0000 0.93710  0.76200  0.66300  Biso   1.000  H
  H30      1.0000 0.06290  0.23800  0.33700  Biso   1.000  H
  C21      1.0000 0.82120  0.41140  0.61660  Biso   1.000  C
  C22      1.0000 0.17880  0.58860  0.38340  Biso   1.000  C
  H31      1.0000 0.79020  0.32000  0.60510  Biso   1.000  H
  H32      1.0000 0.20980  0.68000  0.39490  Biso   1.000  H
  C23      1.0000 0.75460  0.44870  0.52240  Biso   1.000  C
  C24      1.0000 0.24540  0.55130  0.47760  Biso   1.000  C
  H33      1.0000 0.68090  0.38460  0.44800  Biso   1.000  H
  H34      1.0000 0.31910  0.61540  0.55200  Biso   1.000  H
  C25      1.0000 0.76300  0.01620  0.09780  Biso   1.000  C
  C26      1.0000 0.23700  0.98380  0.90220  Biso   1.000  C
  H35      1.0000 0.65870  0.04690  0.13160  Biso   1.000  H
  H36      1.0000 0.34130  0.95310  0.86840  Biso   1.000  H
  H37      1.0000 0.84010  0.09890  0.11440  Biso   1.000  H
  H38      1.0000 0.15990  0.90110  0.88560  Biso   1.000  H
  N3       1.0000 0.45600  0.87970  0.59600  Biso   1.000  N
  N4       1.0000 0.54400  0.12030  0.40400  Biso   1.000  N
  C27      1.0000 0.75090  0.99190  0.60190  Biso   1.000  C
  C28      1.0000 0.24910  0.00810  0.39810  Biso   1.000  C
  H39      1.0000 0.81570  0.92000  0.55000  Biso   1.000  H
  H40      1.0000 0.18430  0.08000  0.45000  Biso   1.000  H
  H41      1.0000 0.80270  0.04050  0.69480  Biso   1.000  H
  H42      1.0000 0.19730  0.95950  0.30520  Biso   1.000  H
  H43      1.0000 0.74510  0.05710  0.56240  Biso   1.000  H
  H44      1.0000 0.25490  0.94290  0.43760  Biso   1.000  H
  C29      1.0000 0.58430  0.92880  0.59990  Biso   1.000  C
  C30      1.0000 0.41570  0.07120  0.40010  Biso   1.000  C
