data_image0
_cell_length_a       11.0237
_cell_length_b       12.5785
_cell_length_c       15.3163
_cell_angle_alpha    70.414
_cell_angle_beta     80.213
_cell_angle_gamma    67.046

_symmetry_space_group_name_H-M    "P 1"
_symmetry_int_tables_number       1

loop_
  _symmetry_equiv_pos_as_xyz
  'x, y, z'

loop_
  _atom_site_label
  _atom_site_occupancy
  _atom_site_fract_x
  _atom_site_fract_y
  _atom_site_fract_z
  _atom_site_thermal_displace_type
  _atom_site_B_iso_or_equiv
  _atom_site_type_symbol
  Cu1      1.0000 0.58350  0.75231  0.26811  Biso   1.000  Cu
  Cu2      1.0000 0.41650  0.24769  0.73189  Biso   1.000  Cu
  Cu3      1.0000 0.73544  0.74692  0.11286  Biso   1.000  Cu
  Cu4      1.0000 0.26456  0.25308  0.88714  Biso   1.000  Cu
  Cu5      1.0000 0.82901  0.57096  0.26845  Biso   1.000  Cu
  Cu6      1.0000 0.17099  0.42904  0.73155  Biso   1.000  Cu
  Cu7      1.0000 0.62324  0.57221  0.19874  Biso   1.000  Cu
  Cu8      1.0000 0.37676  0.42779  0.80126  Biso   1.000  Cu
  I1       1.0000 0.62967  0.52518  0.38341  Biso   1.000  I
  I2       1.0000 0.37033  0.47482  0.61659  Biso   1.000  I
  I3       1.0000 0.85905  0.51726  0.10819  Biso   1.000  I
  I4       1.0000 0.14095  0.48274  0.89181  Biso   1.000  I
  I5       1.0000 0.80510  0.79798  0.25115  Biso   1.000  I
  I6       1.0000 0.19490  0.20202  0.74885  Biso   1.000  I
  I7       1.0000 0.47633  0.79551  0.10855  Biso   1.000  I
  I8       1.0000 0.52367  0.20449  0.89145  Biso   1.000  I
  S1       1.0000 0.42521  0.88619  0.33983  Biso   1.000  S
  S2       1.0000 0.57479  0.11381  0.66017  Biso   1.000  S
  S3       1.0000 0.78843  0.87643  0.97935  Biso   1.000  S
  S4       1.0000 0.21157  0.12357  0.02065  Biso   1.000  S
  O1       1.0000 0.65460  0.80380  0.54790  Biso   1.000  O
  O2       1.0000 0.34540  0.19620  0.45210  Biso   1.000  O
  O3       1.0000 0.61550  0.79080  0.81530  Biso   1.000  O
  O4       1.0000 0.38450  0.20920  0.18470  Biso   1.000  O
  N1       1.0000 0.99740  0.54810  0.67270  Biso   1.000  N
  N2       1.0000 0.00260  0.45190  0.32730  Biso   1.000  N
  N3       1.0000 0.46210  0.54270  0.80630  Biso   1.000  N
  N4       1.0000 0.53790  0.45730  0.19370  Biso   1.000  N
  C1       1.0000 0.24160  0.79840  0.33620  Biso   1.000  C
  C2       1.0000 0.75840  0.20160  0.66380  Biso   1.000  C
  H1       1.0000 0.30730  0.74470  0.30210  Biso   1.000  H
  H2       1.0000 0.69270  0.25530  0.69790  Biso   1.000  H
  H3       1.0000 0.20080  0.87820  0.29070  Biso   1.000  H
  H4       1.0000 0.79920  0.12180  0.70930  Biso   1.000  H
  C3       1.0000 0.13450  0.74480  0.38290  Biso   1.000  C
  C4       1.0000 0.86550  0.25520  0.61710  Biso   1.000  C
  H5       1.0000 0.08700  0.74180  0.33500  Biso   1.000  H
  H6       1.0000 0.91300  0.25820  0.66500  Biso   1.000  H
  H7       1.0000 0.17590  0.66130  0.42330  Biso   1.000  H
  H8       1.0000 0.82410  0.33870  0.57670  Biso   1.000  H
  C5       1.0000 0.03780  0.82270  0.44070  Biso   1.000  C
  C6       1.0000 0.96220  0.17730  0.55930  Biso   1.000  C
  H9       1.0000 0.99200  0.90440  0.39940  Biso   1.000  H
  H10      1.0000 0.00800  0.09560  0.60060  Biso   1.000  H
  H11      1.0000 0.97060  0.78670  0.47200  Biso   1.000  H
  H12      1.0000 0.02940  0.21330  0.52800  Biso   1.000  H
  C7       1.0000 0.10820  0.83240  0.51230  Biso   1.000  C
  C8       1.0000 0.89180  0.16760  0.48770  Biso   1.000  C
  H13      1.0000 0.14960  0.75110  0.55580  Biso   1.000  H
  H14      1.0000 0.85040  0.24890  0.44420  Biso   1.000  H
  H15      1.0000 0.04350  0.88400  0.54840  Biso   1.000  H
  H16      1.0000 0.95650  0.11600  0.45160  Biso   1.000  H
  C9       1.0000 0.21360  0.88610  0.46690  Biso   1.000  C
  C10      1.0000 0.78640  0.11390  0.53310  Biso   1.000  C
  H17      1.0000 0.26190  0.88690  0.51540  Biso   1.000  H
  H18      1.0000 0.73810  0.11310  0.48460  Biso   1.000  H
  H19      1.0000 0.17130  0.97070  0.42860  Biso   1.000  H
  H20      1.0000 0.82870  0.02930  0.57140  Biso   1.000  H
  C11      1.0000 0.31020  0.81300  0.40610  Biso   1.000  C
  C12      1.0000 0.68980  0.18700  0.59390  Biso   1.000  C
  H21      1.0000 0.36130  0.73110  0.44660  Biso   1.000  H
  H22      1.0000 0.63870  0.26890  0.55340  Biso   1.000  H
  C13      1.0000 0.50600  0.89870  0.42640  Biso   1.000  C
  C14      1.0000 0.49400  0.10130  0.57360  Biso   1.000  C
  H23      1.0000 0.56120  0.94800  0.39520  Biso   1.000  H
  H24      1.0000 0.43880  0.05200  0.60480  Biso   1.000  H
  H25      1.0000 0.43810  0.94200  0.46640  Biso   1.000  H
  H26      1.0000 0.56190  0.05800  0.53360  Biso   1.000  H
  C15      1.0000 0.59130  0.77910  0.48670  Biso   1.000  C
  C16      1.0000 0.40870  0.22090  0.51330  Biso   1.000  C
  H27      1.0000 0.53680  0.73090  0.52270  Biso   1.000  H
  H28      1.0000 0.46320  0.26910  0.47730  Biso   1.000  H
  H29      1.0000 0.65800  0.73290  0.44800  Biso   1.000  H
  H30      1.0000 0.34200  0.26710  0.55200  Biso   1.000  H
  C17      1.0000 0.76500  0.71520  0.58870  Biso   1.000  C
  C18      1.0000 0.23500  0.28480  0.41130  Biso   1.000  C
  C19      1.0000 0.82600  0.74170  0.64560  Biso   1.000  C
  C20      1.0000 0.17400  0.25830  0.35440  Biso   1.000  C
  H31      1.0000 0.78840  0.81760  0.65780  Biso   1.000  H
  H32      1.0000 0.21160  0.18240  0.34220  Biso   1.000  H
  C21      1.0000 0.94110  0.65810  0.68460  Biso   1.000  C
  C22      1.0000 0.05890  0.34190  0.31540  Biso   1.000  C
  H33      1.0000 0.98330  0.67900  0.72210  Biso   1.000  H
  H34      1.0000 0.01670  0.32100  0.27790  Biso   1.000  H
  C23      1.0000 0.93520  0.52240  0.61980  Biso   1.000  C
  C24      1.0000 0.06480  0.47760  0.38020  Biso   1.000  C
  H35      1.0000 0.97340  0.44480  0.61050  Biso   1.000  H
  H36      1.0000 0.02660  0.55520  0.38950  Biso   1.000  H
  C25      1.0000 0.81850  0.60100  0.57730  Biso   1.000  C
  C26      1.0000 0.18150  0.39900  0.42270  Biso   1.000  C
  H37      1.0000 0.77660  0.57740  0.54160  Biso   1.000  H
  H38      1.0000 0.22340  0.42260  0.45840  Biso   1.000  H
  C27      1.0000 0.04000  0.79300  0.02260  Biso   1.000  C
  C28      1.0000 0.96000  0.20700  0.97740  Biso   1.000  C
  H39      1.0000 0.00710  0.86940  0.03930  Biso   1.000  H
  H40      1.0000 0.99290  0.13060  0.96070  Biso   1.000  H
  H41      1.0000 0.02610  0.72920  0.07780  Biso   1.000  H
  H42      1.0000 0.97390  0.27080  0.92220  Biso   1.000  H
  C29      1.0000 0.17730  0.76170  0.99950  Biso   1.000  C
  C30      1.0000 0.82270  0.23830  0.00050  Biso   1.000  C
  H43      1.0000 0.21300  0.67990  0.99170  Biso   1.000  H
  H44      1.0000 0.78700  0.32010  0.00830  Biso   1.000  H
  H45      1.0000 0.22210  0.75910  0.05140  Biso   1.000  H
  H46      1.0000 0.77790  0.24090  0.94860  Biso   1.000  H
  C31      1.0000 0.20760  0.85010  0.91140  Biso   1.000  C
  C32      1.0000 0.79240  0.14990  0.08860  Biso   1.000  C
  H47      1.0000 0.30290  0.81950  0.89430  Biso   1.000  H
  H48      1.0000 0.69710  0.18050  0.10570  Biso   1.000  H
  H49      1.0000 0.18560  0.92910  0.92210  Biso   1.000  H
  H50      1.0000 0.81440  0.07090  0.07790  Biso   1.000  H
  C33      1.0000 0.12830  0.86640  0.83270  Biso   1.000  C
  C34      1.0000 0.87170  0.13360  0.16730  Biso   1.000  C
  H51      1.0000 0.14240  0.93080  0.77820  Biso   1.000  H
  H52      1.0000 0.85760  0.06920  0.22180  Biso   1.000  H
  H53      1.0000 0.16260  0.79050  0.81530  Biso   1.000  H
  H54      1.0000 0.83740  0.20950  0.18470  Biso   1.000  H
  C35      1.0000 0.99340  0.89590  0.85340  Biso   1.000  C
  C36      1.0000 0.00660  0.10410  0.14660  Biso   1.000  C
  H55      1.0000 0.95140  0.89560  0.80130  Biso   1.000  H
  H56      1.0000 0.04860  0.10440  0.19870  Biso   1.000  H
  H57      1.0000 0.95560  0.97900  0.85900  Biso   1.000  H
  H58      1.0000 0.04440  0.02100  0.14100  Biso   1.000  H
  C37      1.0000 0.95910  0.80880  0.94380  Biso   1.000  C
  C38      1.0000 0.04090  0.19120  0.05620  Biso   1.000  C
  H59      1.0000 0.97590  0.72890  0.93490  Biso   1.000  H
  H60      1.0000 0.02410  0.27110  0.06510  Biso   1.000  H
  C39      1.0000 0.69760  0.88340  0.88820  Biso   1.000  C
  C40      1.0000 0.30240  0.11660  0.11180  Biso   1.000  C
  H61      1.0000 0.60430  0.93520  0.89520  Biso   1.000  H
  H62      1.0000 0.39570  0.06480  0.10480  Biso   1.000  H
  H63      1.0000 0.73320  0.92260  0.82760  Biso   1.000  H
  H64      1.0000 0.26680  0.07740  0.17240  Biso   1.000  H
  C41      1.0000 0.70210  0.76340  0.88710  Biso   1.000  C
  C42      1.0000 0.29790  0.23660  0.11290  Biso   1.000  C
  H65      1.0000 0.79300  0.71270  0.87270  Biso   1.000  H
  H66      1.0000 0.20700  0.28730  0.12730  Biso   1.000  H
  H67      1.0000 0.67100  0.71990  0.94790  Biso   1.000  H
  H68      1.0000 0.32900  0.28010  0.05210  Biso   1.000  H
  C43      1.0000 0.57100  0.70470  0.81500  Biso   1.000  C
  C44      1.0000 0.42900  0.29530  0.18500  Biso   1.000  C
  C45      1.0000 0.48200  0.73740  0.74900  Biso   1.000  C
  C46      1.0000 0.51800  0.26260  0.25100  Biso   1.000  C
  H69      1.0000 0.45670  0.81580  0.70540  Biso   1.000  H
  H70      1.0000 0.54330  0.18420  0.29460  Biso   1.000  H
  C47      1.0000 0.43030  0.65470  0.74720  Biso   1.000  C
  C48      1.0000 0.56970  0.34530  0.25280  Biso   1.000  C
  H71      1.0000 0.36870  0.67840  0.70160  Biso   1.000  H
  H72      1.0000 0.63130  0.32160  0.29840  Biso   1.000  H
  C49      1.0000 0.54890  0.51320  0.86830  Biso   1.000  C
  C50      1.0000 0.45110  0.48680  0.13170  Biso   1.000  C
  H73      1.0000 0.57320  0.43410  0.91080  Biso   1.000  H
  H74      1.0000 0.42680  0.56590  0.08920  Biso   1.000  H
  C51      1.0000 0.60720  0.58990  0.87560  Biso   1.000  C
  C52      1.0000 0.39280  0.41010  0.12440  Biso   1.000  C
  H75      1.0000 0.67000  0.56370  0.92110  Biso   1.000  H
  H76      1.0000 0.33000  0.43630  0.07890  Biso   1.000  H
