data_image0
_cell_length_a       15.8963
_cell_length_b       29.2769
_cell_length_c       15.2635
_cell_angle_alpha    90
_cell_angle_beta     117.882
_cell_angle_gamma    90

_symmetry_space_group_name_H-M    "P 1"
_symmetry_int_tables_number       1

loop_
  _symmetry_equiv_pos_as_xyz
  'x, y, z'

loop_
  _atom_site_label
  _atom_site_occupancy
  _atom_site_fract_x
  _atom_site_fract_y
  _atom_site_fract_z
  _atom_site_thermal_displace_type
  _atom_site_B_iso_or_equiv
  _atom_site_type_symbol
  Cu1      1.0000 0.70535  0.59215  0.81343  Biso   1.000  Cu
  Cu2      1.0000 0.29465  0.59215  0.68657  Biso   1.000  Cu
  Cu3      1.0000 0.20535  0.09215  0.81343  Biso   1.000  Cu
  Cu4      1.0000 0.79465  0.09215  0.68657  Biso   1.000  Cu
  Cu5      1.0000 0.29465  0.40785  0.18657  Biso   1.000  Cu
  Cu6      1.0000 0.70535  0.40785  0.31343  Biso   1.000  Cu
  Cu7      1.0000 0.79465  0.90785  0.18657  Biso   1.000  Cu
  Cu8      1.0000 0.20535  0.90785  0.31343  Biso   1.000  Cu
  Cu9      1.0000 0.81003  0.59299  0.69450  Biso   1.000  Cu
  Cu10     1.0000 0.18997  0.59299  0.80550  Biso   1.000  Cu
  Cu11     1.0000 0.31003  0.09299  0.69450  Biso   1.000  Cu
  Cu12     1.0000 0.68997  0.09299  0.80550  Biso   1.000  Cu
  Cu13     1.0000 0.18997  0.40701  0.30550  Biso   1.000  Cu
  Cu14     1.0000 0.81003  0.40701  0.19450  Biso   1.000  Cu
  Cu15     1.0000 0.68997  0.90701  0.30550  Biso   1.000  Cu
  Cu16     1.0000 0.31003  0.90701  0.19450  Biso   1.000  Cu
  Cl1      1.0000 0.63671  0.58459  0.63569  Biso   1.000  Cl
  Cl2      1.0000 0.36329  0.58459  0.86431  Biso   1.000  Cl
  Cl3      1.0000 0.13671  0.08459  0.63569  Biso   1.000  Cl
  Cl4      1.0000 0.86329  0.08459  0.86431  Biso   1.000  Cl
  Cl5      1.0000 0.36329  0.41541  0.36431  Biso   1.000  Cl
  Cl6      1.0000 0.63671  0.41541  0.13569  Biso   1.000  Cl
  Cl7      1.0000 0.86329  0.91541  0.36431  Biso   1.000  Cl
  Cl8      1.0000 0.13671  0.91541  0.13569  Biso   1.000  Cl
  Cl9      1.0000 0.87577  0.57949  0.87259  Biso   1.000  Cl
  Cl10     1.0000 0.12423  0.57949  0.62741  Biso   1.000  Cl
  Cl11     1.0000 0.37577  0.07949  0.87259  Biso   1.000  Cl
  Cl12     1.0000 0.62423  0.07949  0.62741  Biso   1.000  Cl
  Cl13     1.0000 0.12423  0.42051  0.12741  Biso   1.000  Cl
  Cl14     1.0000 0.87577  0.42051  0.37259  Biso   1.000  Cl
  Cl15     1.0000 0.62423  0.92051  0.12741  Biso   1.000  Cl
  Cl16     1.0000 0.37577  0.92051  0.37259  Biso   1.000  Cl
  O1       1.0000 0.49106  0.74408  0.62050  Biso   1.000  O
  O2       1.0000 0.50894  0.74408  0.87950  Biso   1.000  O
  O3       1.0000 0.99106  0.24408  0.62050  Biso   1.000  O
  O4       1.0000 0.00894  0.24408  0.87950  Biso   1.000  O
  O5       1.0000 0.50894  0.25592  0.37950  Biso   1.000  O
  O6       1.0000 0.49106  0.25592  0.12050  Biso   1.000  O
  O7       1.0000 0.00894  0.75592  0.37950  Biso   1.000  O
  O8       1.0000 0.99106  0.75592  0.12050  Biso   1.000  O
  O9       1.0000 0.79570  0.37577  0.61640  Biso   1.000  O
  O10      1.0000 0.20430  0.37577  0.88360  Biso   1.000  O
  O11      1.0000 0.29570  0.87577  0.61640  Biso   1.000  O
  O12      1.0000 0.70430  0.87577  0.88360  Biso   1.000  O
  O13      1.0000 0.20430  0.62423  0.38360  Biso   1.000  O
  O14      1.0000 0.79570  0.62423  0.11640  Biso   1.000  O
  O15      1.0000 0.70430  0.12423  0.38360  Biso   1.000  O
  O16      1.0000 0.29570  0.12423  0.11640  Biso   1.000  O
  O17      1.0000 0.59156  0.80352  0.68220  Biso   1.000  O
  O18      1.0000 0.40844  0.80352  0.81780  Biso   1.000  O
  O19      1.0000 0.09156  0.30352  0.68220  Biso   1.000  O
  O20      1.0000 0.90844  0.30352  0.81780  Biso   1.000  O
  O21      1.0000 0.40844  0.19648  0.31780  Biso   1.000  O
  O22      1.0000 0.59156  0.19648  0.18220  Biso   1.000  O
  O23      1.0000 0.90844  0.69648  0.31780  Biso   1.000  O
  O24      1.0000 0.09156  0.69648  0.18220  Biso   1.000  O
  O25      1.0000 0.68730  0.42179  0.62670  Biso   1.000  O
  O26      1.0000 0.31270  0.42179  0.87330  Biso   1.000  O
  O27      1.0000 0.18730  0.92179  0.62670  Biso   1.000  O
  O28      1.0000 0.81270  0.92179  0.87330  Biso   1.000  O
  O29      1.0000 0.31270  0.57821  0.37330  Biso   1.000  O
  O30      1.0000 0.68730  0.57821  0.12670  Biso   1.000  O
  O31      1.0000 0.81270  0.07821  0.37330  Biso   1.000  O
  O32      1.0000 0.18730  0.07821  0.12670  Biso   1.000  O
  O33      1.0000 0.70480  0.91351  0.59810  Biso   1.000  O
  O34      1.0000 0.29520  0.91351  0.90190  Biso   1.000  O
  O35      1.0000 0.20480  0.41351  0.59810  Biso   1.000  O
  O36      1.0000 0.79520  0.41351  0.90190  Biso   1.000  O
  O37      1.0000 0.29520  0.08649  0.40190  Biso   1.000  O
  O38      1.0000 0.70480  0.08649  0.09810  Biso   1.000  O
  O39      1.0000 0.79520  0.58649  0.40190  Biso   1.000  O
  O40      1.0000 0.20480  0.58649  0.09810  Biso   1.000  O
  O41      1.0000 0.56931  0.29760  0.64550  Biso   1.000  O
  O42      1.0000 0.43069  0.29760  0.85450  Biso   1.000  O
  O43      1.0000 0.06931  0.79760  0.64550  Biso   1.000  O
  O44      1.0000 0.93069  0.79760  0.85450  Biso   1.000  O
  O45      1.0000 0.43069  0.70240  0.35450  Biso   1.000  O
  O46      1.0000 0.56931  0.70240  0.14550  Biso   1.000  O
  O47      1.0000 0.93069  0.20240  0.35450  Biso   1.000  O
  O48      1.0000 0.06931  0.20240  0.14550  Biso   1.000  O
  O49      1.0000 0.82950  0.87629  0.60240  Biso   1.000  O
  O50      1.0000 0.17050  0.87629  0.89760  Biso   1.000  O
  O51      1.0000 0.32950  0.37629  0.60240  Biso   1.000  O
  O52      1.0000 0.67050  0.37629  0.89760  Biso   1.000  O
  O53      1.0000 0.17050  0.12371  0.39760  Biso   1.000  O
  O54      1.0000 0.82950  0.12371  0.10240  Biso   1.000  O
  O55      1.0000 0.67050  0.62371  0.39760  Biso   1.000  O
  O56      1.0000 0.32950  0.62371  0.10240  Biso   1.000  O
  O57      1.0000 0.47014  0.23744  0.58442  Biso   1.000  O
  O58      1.0000 0.52986  0.23744  0.91558  Biso   1.000  O
  O59      1.0000 0.97014  0.73744  0.58442  Biso   1.000  O
  O60      1.0000 0.02986  0.73744  0.91558  Biso   1.000  O
  O61      1.0000 0.52986  0.76256  0.41558  Biso   1.000  O
  O62      1.0000 0.47014  0.76256  0.08442  Biso   1.000  O
  O63      1.0000 0.02986  0.26256  0.41558  Biso   1.000  O
  O64      1.0000 0.97014  0.26256  0.08442  Biso   1.000  O
  N1       1.0000 0.69890  0.65945  0.83290  Biso   1.000  N
  N2       1.0000 0.30110  0.65945  0.66710  Biso   1.000  N
  N3       1.0000 0.19890  0.15945  0.83290  Biso   1.000  N
  N4       1.0000 0.80110  0.15945  0.66710  Biso   1.000  N
  N5       1.0000 0.30110  0.34055  0.16710  Biso   1.000  N
  N6       1.0000 0.69890  0.34055  0.33290  Biso   1.000  N
  N7       1.0000 0.80110  0.84055  0.16710  Biso   1.000  N
  N8       1.0000 0.19890  0.84055  0.33290  Biso   1.000  N
  N9       1.0000 0.84130  0.53641  0.64560  Biso   1.000  N
  N10      1.0000 0.15870  0.53641  0.85440  Biso   1.000  N
  N11      1.0000 0.34130  0.03641  0.64560  Biso   1.000  N
  N12      1.0000 0.65870  0.03641  0.85440  Biso   1.000  N
  N13      1.0000 0.15870  0.46359  0.35440  Biso   1.000  N
  N14      1.0000 0.84130  0.46359  0.14560  Biso   1.000  N
  N15      1.0000 0.65870  0.96359  0.35440  Biso   1.000  N
  N16      1.0000 0.34130  0.96359  0.14560  Biso   1.000  N
  N17      1.0000 0.83970  0.03807  0.64070  Biso   1.000  N
  N18      1.0000 0.16030  0.03807  0.85930  Biso   1.000  N
  N19      1.0000 0.33970  0.53807  0.64070  Biso   1.000  N
  N20      1.0000 0.66030  0.53807  0.85930  Biso   1.000  N
  N21      1.0000 0.16030  0.96193  0.35930  Biso   1.000  N
  N22      1.0000 0.83970  0.96193  0.14070  Biso   1.000  N
  N23      1.0000 0.66030  0.46193  0.35930  Biso   1.000  N
  N24      1.0000 0.33970  0.46193  0.14070  Biso   1.000  N
  N25      1.0000 0.67710  0.15953  0.81590  Biso   1.000  N
  N26      1.0000 0.32290  0.15953  0.68410  Biso   1.000  N
  N27      1.0000 0.17710  0.65953  0.81590  Biso   1.000  N
  N28      1.0000 0.82290  0.65953  0.68410  Biso   1.000  N
  N29      1.0000 0.32290  0.84047  0.18410  Biso   1.000  N
  N30      1.0000 0.67710  0.84047  0.31590  Biso   1.000  N
  N31      1.0000 0.82290  0.34047  0.18410  Biso   1.000  N
  N32      1.0000 0.17710  0.34047  0.31590  Biso   1.000  N
  C1       1.0000 0.56560  0.76009  0.68170  Biso   1.000  C
  C2       1.0000 0.43440  0.76009  0.81830  Biso   1.000  C
  C3       1.0000 0.06560  0.26009  0.68170  Biso   1.000  C
  C4       1.0000 0.93440  0.26009  0.81830  Biso   1.000  C
  C5       1.0000 0.43440  0.23991  0.31830  Biso   1.000  C
  C6       1.0000 0.56560  0.23991  0.18170  Biso   1.000  C
  C7       1.0000 0.93440  0.73991  0.31830  Biso   1.000  C
  C8       1.0000 0.06560  0.73991  0.18170  Biso   1.000  C
  C9       1.0000 0.76650  0.41344  0.61930  Biso   1.000  C
  C10      1.0000 0.23350  0.41344  0.88070  Biso   1.000  C
  C11      1.0000 0.26650  0.91344  0.61930  Biso   1.000  C
  C12      1.0000 0.73350  0.91344  0.88070  Biso   1.000  C
  C13      1.0000 0.23350  0.58656  0.38070  Biso   1.000  C
  C14      1.0000 0.76650  0.58656  0.11930  Biso   1.000  C
  C15      1.0000 0.73350  0.08656  0.38070  Biso   1.000  C
  C16      1.0000 0.26650  0.08656  0.11930  Biso   1.000  C
  C17      1.0000 0.52460  0.83221  0.60210  Biso   1.000  C
  C18      1.0000 0.47540  0.83221  0.89790  Biso   1.000  C
  C19      1.0000 0.02460  0.33221  0.60210  Biso   1.000  C
  C20      1.0000 0.97540  0.33221  0.89790  Biso   1.000  C
  C21      1.0000 0.47540  0.16779  0.39790  Biso   1.000  C
  C22      1.0000 0.52460  0.16779  0.10210  Biso   1.000  C
  C23      1.0000 0.97540  0.66779  0.39790  Biso   1.000  C
  C24      1.0000 0.02460  0.66779  0.10210  Biso   1.000  C
  H1       1.0000 0.46730  0.83800  0.61020  Biso   1.000  H
  H2       1.0000 0.53270  0.83800  0.88980  Biso   1.000  H
  H3       1.0000 0.96730  0.33800  0.61020  Biso   1.000  H
  H4       1.0000 0.03270  0.33800  0.88980  Biso   1.000  H
  H5       1.0000 0.53270  0.16200  0.38980  Biso   1.000  H
  H6       1.0000 0.46730  0.16200  0.11020  Biso   1.000  H
  H7       1.0000 0.03270  0.66200  0.38980  Biso   1.000  H
  H8       1.0000 0.96730  0.66200  0.11020  Biso   1.000  H
  H9       1.0000 0.50470  0.81710  0.53730  Biso   1.000  H
  H10      1.0000 0.49530  0.81710  0.96270  Biso   1.000  H
  H11      1.0000 0.00470  0.31710  0.53730  Biso   1.000  H
  H12      1.0000 0.99530  0.31710  0.96270  Biso   1.000  H
  H13      1.0000 0.49530  0.18290  0.46270  Biso   1.000  H
  H14      1.0000 0.50470  0.18290  0.03730  Biso   1.000  H
  H15      1.0000 0.99530  0.68290  0.46270  Biso   1.000  H
  H16      1.0000 0.00470  0.68290  0.03730  Biso   1.000  H
  C25      1.0000 0.63690  0.38299  0.64220  Biso   1.000  C
  C26      1.0000 0.36310  0.38299  0.85780  Biso   1.000  C
  C27      1.0000 0.13690  0.88299  0.64220  Biso   1.000  C
  C28      1.0000 0.86310  0.88299  0.85780  Biso   1.000  C
  C29      1.0000 0.36310  0.61701  0.35780  Biso   1.000  C
  C30      1.0000 0.63690  0.61701  0.14220  Biso   1.000  C
  C31      1.0000 0.86310  0.11701  0.35780  Biso   1.000  C
  C32      1.0000 0.13690  0.11701  0.14220  Biso   1.000  C
  H17      1.0000 0.68400  0.36110  0.68900  Biso   1.000  H
  H18      1.0000 0.31600  0.36110  0.81100  Biso   1.000  H
  H19      1.0000 0.18400  0.86110  0.68900  Biso   1.000  H
  H20      1.0000 0.81600  0.86110  0.81100  Biso   1.000  H
  H21      1.0000 0.31600  0.63890  0.31100  Biso   1.000  H
  H22      1.0000 0.68400  0.63890  0.18900  Biso   1.000  H
  H23      1.0000 0.81600  0.13890  0.31100  Biso   1.000  H
  H24      1.0000 0.18400  0.13890  0.18900  Biso   1.000  H
  H25      1.0000 0.59720  0.39410  0.67200  Biso   1.000  H
  H26      1.0000 0.40280  0.39410  0.82800  Biso   1.000  H
  H27      1.0000 0.09720  0.89410  0.67200  Biso   1.000  H
  H28      1.0000 0.90280  0.89410  0.82800  Biso   1.000  H
  H29      1.0000 0.40280  0.60590  0.32800  Biso   1.000  H
  H30      1.0000 0.59720  0.60590  0.17200  Biso   1.000  H
  H31      1.0000 0.90280  0.10590  0.32800  Biso   1.000  H
  H32      1.0000 0.09720  0.10590  0.17200  Biso   1.000  H
  C33      1.0000 0.57530  0.87659  0.60690  Biso   1.000  C
  C34      1.0000 0.42470  0.87659  0.89310  Biso   1.000  C
  C35      1.0000 0.07530  0.37659  0.60690  Biso   1.000  C
  C36      1.0000 0.92470  0.37659  0.89310  Biso   1.000  C
  C37      1.0000 0.42470  0.12341  0.39310  Biso   1.000  C
  C38      1.0000 0.57530  0.12341  0.10690  Biso   1.000  C
  C39      1.0000 0.92470  0.62341  0.39310  Biso   1.000  C
  C40      1.0000 0.07530  0.62341  0.10690  Biso   1.000  C
  H33      1.0000 0.53030  0.89810  0.55700  Biso   1.000  H
  H34      1.0000 0.46970  0.89810  0.94300  Biso   1.000  H
  H35      1.0000 0.03030  0.39810  0.55700  Biso   1.000  H
  H36      1.0000 0.96970  0.39810  0.94300  Biso   1.000  H
  H37      1.0000 0.46970  0.10190  0.44300  Biso   1.000  H
  H38      1.0000 0.53030  0.10190  0.05700  Biso   1.000  H
  H39      1.0000 0.96970  0.60190  0.44300  Biso   1.000  H
  H40      1.0000 0.03030  0.60190  0.05700  Biso   1.000  H
  H41      1.0000 0.59770  0.89050  0.67320  Biso   1.000  H
  H42      1.0000 0.40230  0.89050  0.82680  Biso   1.000  H
  H43      1.0000 0.09770  0.39050  0.67320  Biso   1.000  H
  H44      1.0000 0.90230  0.39050  0.82680  Biso   1.000  H
  H45      1.0000 0.40230  0.10950  0.32680  Biso   1.000  H
  H46      1.0000 0.59770  0.10950  0.17320  Biso   1.000  H
  H47      1.0000 0.90230  0.60950  0.32680  Biso   1.000  H
  H48      1.0000 0.09770  0.60950  0.17320  Biso   1.000  H
  C41      1.0000 0.57630  0.35957  0.54840  Biso   1.000  C
  C42      1.0000 0.42370  0.35957  0.95160  Biso   1.000  C
  C43      1.0000 0.07630  0.85957  0.54840  Biso   1.000  C
  C44      1.0000 0.92370  0.85957  0.95160  Biso   1.000  C
  C45      1.0000 0.42370  0.64043  0.45160  Biso   1.000  C
  C46      1.0000 0.57630  0.64043  0.04840  Biso   1.000  C
  C47      1.0000 0.92370  0.14043  0.45160  Biso   1.000  C
  C48      1.0000 0.07630  0.14043  0.04840  Biso   1.000  C
  H49      1.0000 0.61670  0.34280  0.52590  Biso   1.000  H
  H50      1.0000 0.38330  0.34280  0.97410  Biso   1.000  H
  H51      1.0000 0.11670  0.84280  0.52590  Biso   1.000  H
  H52      1.0000 0.88330  0.84280  0.97410  Biso   1.000  H
  H53      1.0000 0.38330  0.65720  0.47410  Biso   1.000  H
  H54      1.0000 0.61670  0.65720  0.02590  Biso   1.000  H
  H55      1.0000 0.88330  0.15720  0.47410  Biso   1.000  H
  H56      1.0000 0.11670  0.15720  0.02590  Biso   1.000  H
  H57      1.0000 0.53870  0.38240  0.49720  Biso   1.000  H
  H58      1.0000 0.46130  0.38240  0.00280  Biso   1.000  H
  H59      1.0000 0.03870  0.88240  0.49720  Biso   1.000  H
  H60      1.0000 0.96130  0.88240  0.00280  Biso   1.000  H
  H61      1.0000 0.46130  0.61760  0.50280  Biso   1.000  H
  H62      1.0000 0.53870  0.61760  0.99720  Biso   1.000  H
  H63      1.0000 0.96130  0.11760  0.50280  Biso   1.000  H
  H64      1.0000 0.03870  0.11760  0.99720  Biso   1.000  H
  C49      1.0000 0.65810  0.86898  0.58790  Biso   1.000  C
  C50      1.0000 0.34190  0.86898  0.91210  Biso   1.000  C
  C51      1.0000 0.15810  0.36898  0.58790  Biso   1.000  C
  C52      1.0000 0.84190  0.36898  0.91210  Biso   1.000  C
  C53      1.0000 0.34190  0.13102  0.41210  Biso   1.000  C
  C54      1.0000 0.65810  0.13102  0.08790  Biso   1.000  C
  C55      1.0000 0.84190  0.63102  0.41210  Biso   1.000  C
  C56      1.0000 0.15810  0.63102  0.08790  Biso   1.000  C
  H65      1.0000 0.70300  0.84690  0.63640  Biso   1.000  H
  H66      1.0000 0.29700  0.84690  0.86360  Biso   1.000  H
  H67      1.0000 0.20300  0.34690  0.63640  Biso   1.000  H
  H68      1.0000 0.79700  0.34690  0.86360  Biso   1.000  H
  H69      1.0000 0.29700  0.15310  0.36360  Biso   1.000  H
  H70      1.0000 0.70300  0.15310  0.13640  Biso   1.000  H
  H71      1.0000 0.79700  0.65310  0.36360  Biso   1.000  H
  H72      1.0000 0.20300  0.65310  0.13640  Biso   1.000  H
  H73      1.0000 0.63630  0.85660  0.52040  Biso   1.000  H
  H74      1.0000 0.36370  0.85660  0.97960  Biso   1.000  H
  H75      1.0000 0.13630  0.35660  0.52040  Biso   1.000  H
  H76      1.0000 0.86370  0.35660  0.97960  Biso   1.000  H
  H77      1.0000 0.36370  0.14340  0.47960  Biso   1.000  H
  H78      1.0000 0.63630  0.14340  0.02040  Biso   1.000  H
  H79      1.0000 0.86370  0.64340  0.47960  Biso   1.000  H
  H80      1.0000 0.13630  0.64340  0.02040  Biso   1.000  H
  C57      1.0000 0.50960  0.32651  0.56080  Biso   1.000  C
  C58      1.0000 0.49040  0.32651  0.93920  Biso   1.000  C
  C59      1.0000 0.00960  0.82651  0.56080  Biso   1.000  C
  C60      1.0000 0.99040  0.82651  0.93920  Biso   1.000  C
  C61      1.0000 0.49040  0.67349  0.43920  Biso   1.000  C
  C62      1.0000 0.50960  0.67349  0.06080  Biso   1.000  C
  C63      1.0000 0.99040  0.17349  0.43920  Biso   1.000  C
  C64      1.0000 0.00960  0.17349  0.06080  Biso   1.000  C
  H81      1.0000 0.46220  0.34320  0.57360  Biso   1.000  H
  H82      1.0000 0.53780  0.34320  0.92640  Biso   1.000  H
  H83      1.0000 0.96220  0.84320  0.57360  Biso   1.000  H
  H84      1.0000 0.03780  0.84320  0.92640  Biso   1.000  H
  H85      1.0000 0.53780  0.65680  0.42640  Biso   1.000  H
  H86      1.0000 0.46220  0.65680  0.07360  Biso   1.000  H
  H87      1.0000 0.03780  0.15680  0.42640  Biso   1.000  H
  H88      1.0000 0.96220  0.15680  0.07360  Biso   1.000  H
  H89      1.0000 0.47530  0.30780  0.50030  Biso   1.000  H
  H90      1.0000 0.52470  0.30780  0.99970  Biso   1.000  H
  H91      1.0000 0.97530  0.80780  0.50030  Biso   1.000  H
  H92      1.0000 0.02470  0.80780  0.99970  Biso   1.000  H
  H93      1.0000 0.52470  0.69220  0.49970  Biso   1.000  H
  H94      1.0000 0.47530  0.69220  0.00030  Biso   1.000  H
  H95      1.0000 0.02470  0.19220  0.49970  Biso   1.000  H
  H96      1.0000 0.97530  0.19220  0.00030  Biso   1.000  H
  C65      1.0000 0.79090  0.91157  0.60360  Biso   1.000  C
  C66      1.0000 0.20910  0.91157  0.89640  Biso   1.000  C
  C67      1.0000 0.29090  0.41157  0.60360  Biso   1.000  C
  C68      1.0000 0.70910  0.41157  0.89640  Biso   1.000  C
  C69      1.0000 0.20910  0.08843  0.39640  Biso   1.000  C
  C70      1.0000 0.79090  0.08843  0.10360  Biso   1.000  C
  C71      1.0000 0.70910  0.58843  0.39640  Biso   1.000  C
  C72      1.0000 0.29090  0.58843  0.10360  Biso   1.000  C
  C73      1.0000 0.54110  0.25492  0.64750  Biso   1.000  C
  C74      1.0000 0.45890  0.25492  0.85250  Biso   1.000  C
  C75      1.0000 0.04110  0.75492  0.64750  Biso   1.000  C
  C76      1.0000 0.95890  0.75492  0.85250  Biso   1.000  C
  C77      1.0000 0.45890  0.74508  0.35250  Biso   1.000  C
  C78      1.0000 0.54110  0.74508  0.14750  Biso   1.000  C
  C79      1.0000 0.95890  0.24508  0.35250  Biso   1.000  C
  C80      1.0000 0.04110  0.24508  0.14750  Biso   1.000  C
  C81      1.0000 0.64030  0.73345  0.76610  Biso   1.000  C
  C82      1.0000 0.35970  0.73345  0.73390  Biso   1.000  C
  C83      1.0000 0.14030  0.23345  0.76610  Biso   1.000  C
  C84      1.0000 0.85970  0.23345  0.73390  Biso   1.000  C
  C85      1.0000 0.35970  0.26655  0.23390  Biso   1.000  C
  C86      1.0000 0.64030  0.26655  0.26610  Biso   1.000  C
  C87      1.0000 0.85970  0.76655  0.23390  Biso   1.000  C
  C88      1.0000 0.14030  0.76655  0.26610  Biso   1.000  C
  C89      1.0000 0.81790  0.45593  0.62040  Biso   1.000  C
  C90      1.0000 0.18210  0.45593  0.87960  Biso   1.000  C
  C91      1.0000 0.31790  0.95593  0.62040  Biso   1.000  C
  C92      1.0000 0.68210  0.95593  0.87960  Biso   1.000  C
  C93      1.0000 0.18210  0.54407  0.37960  Biso   1.000  C
  C94      1.0000 0.81790  0.54407  0.12040  Biso   1.000  C
  C95      1.0000 0.68210  0.04407  0.37960  Biso   1.000  C
  C96      1.0000 0.31790  0.04407  0.12040  Biso   1.000  C
  C97      1.0000 0.63450  0.68644  0.76180  Biso   1.000  C
  C98      1.0000 0.36550  0.68644  0.73820  Biso   1.000  C
  C99      1.0000 0.13450  0.18644  0.76180  Biso   1.000  C
  C100     1.0000 0.86550  0.18644  0.73820  Biso   1.000  C
  C101     1.0000 0.36550  0.31356  0.23820  Biso   1.000  C
  C102     1.0000 0.63450  0.31356  0.26180  Biso   1.000  C
  C103     1.0000 0.86550  0.81356  0.23820  Biso   1.000  C
  C104     1.0000 0.13450  0.81356  0.26180  Biso   1.000  C
  H97      1.0000 0.58310  0.67260  0.70630  Biso   1.000  H
  H98      1.0000 0.41690  0.67260  0.79370  Biso   1.000  H
  H99      1.0000 0.08310  0.17260  0.70630  Biso   1.000  H
  H100     1.0000 0.91690  0.17260  0.79370  Biso   1.000  H
  H101     1.0000 0.41690  0.32740  0.29370  Biso   1.000  H
  H102     1.0000 0.58310  0.32740  0.20630  Biso   1.000  H
  H103     1.0000 0.91690  0.82740  0.29370  Biso   1.000  H
  H104     1.0000 0.08310  0.82740  0.20630  Biso   1.000  H
  C105     1.0000 0.79240  0.49831  0.64080  Biso   1.000  C
  C106     1.0000 0.20760  0.49831  0.85920  Biso   1.000  C
  C107     1.0000 0.29240  0.99831  0.64080  Biso   1.000  C
  C108     1.0000 0.70760  0.99831  0.85920  Biso   1.000  C
  C109     1.0000 0.20760  0.50169  0.35920  Biso   1.000  C
  C110     1.0000 0.79240  0.50169  0.14080  Biso   1.000  C
  C111     1.0000 0.70760  0.00169  0.35920  Biso   1.000  C
  C112     1.0000 0.29240  0.00169  0.14080  Biso   1.000  C
  H105     1.0000 0.73840  0.50050  0.65190  Biso   1.000  H
  H106     1.0000 0.26160  0.50050  0.84810  Biso   1.000  H
  H107     1.0000 0.23840  0.00050  0.65190  Biso   1.000  H
  H108     1.0000 0.76160  0.00050  0.84810  Biso   1.000  H
  H109     1.0000 0.26160  0.49950  0.34810  Biso   1.000  H
  H110     1.0000 0.73840  0.49950  0.15190  Biso   1.000  H
  H111     1.0000 0.76160  0.99950  0.34810  Biso   1.000  H
  H112     1.0000 0.23840  0.99950  0.15190  Biso   1.000  H
  C113     1.0000 0.77010  0.68039  0.91120  Biso   1.000  C
  C114     1.0000 0.22990  0.68039  0.58880  Biso   1.000  C
  C115     1.0000 0.27010  0.18039  0.91120  Biso   1.000  C
  C116     1.0000 0.72990  0.18039  0.58880  Biso   1.000  C
  C117     1.0000 0.22990  0.31961  0.08880  Biso   1.000  C
  C118     1.0000 0.77010  0.31961  0.41120  Biso   1.000  C
  C119     1.0000 0.72990  0.81961  0.08880  Biso   1.000  C
  C120     1.0000 0.27010  0.81961  0.41120  Biso   1.000  C
  H113     1.0000 0.81510  0.66190  0.96300  Biso   1.000  H
  H114     1.0000 0.18490  0.66190  0.53700  Biso   1.000  H
  H115     1.0000 0.31510  0.16190  0.96300  Biso   1.000  H
  H116     1.0000 0.68490  0.16190  0.53700  Biso   1.000  H
  H117     1.0000 0.18490  0.33810  0.03700  Biso   1.000  H
  H118     1.0000 0.81510  0.33810  0.46300  Biso   1.000  H
  H119     1.0000 0.68490  0.83810  0.03700  Biso   1.000  H
  H120     1.0000 0.31510  0.83810  0.46300  Biso   1.000  H
  C121     1.0000 0.91590  0.53291  0.62760  Biso   1.000  C
  C122     1.0000 0.08410  0.53291  0.87240  Biso   1.000  C
  C123     1.0000 0.41590  0.03291  0.62760  Biso   1.000  C
  C124     1.0000 0.58410  0.03291  0.87240  Biso   1.000  C
  C125     1.0000 0.08410  0.46709  0.37240  Biso   1.000  C
  C126     1.0000 0.91590  0.46709  0.12760  Biso   1.000  C
  C127     1.0000 0.58410  0.96709  0.37240  Biso   1.000  C
  C128     1.0000 0.41590  0.96709  0.12760  Biso   1.000  C
  H121     1.0000 0.95080  0.55980  0.63070  Biso   1.000  H
  H122     1.0000 0.04920  0.55980  0.86930  Biso   1.000  H
  H123     1.0000 0.45080  0.05980  0.63070  Biso   1.000  H
  H124     1.0000 0.54920  0.05980  0.86930  Biso   1.000  H
  H125     1.0000 0.04920  0.44020  0.36930  Biso   1.000  H
  H126     1.0000 0.95080  0.44020  0.13070  Biso   1.000  H
  H127     1.0000 0.54920  0.94020  0.36930  Biso   1.000  H
  H128     1.0000 0.45080  0.94020  0.13070  Biso   1.000  H
  C129     1.0000 0.78110  0.72685  0.92040  Biso   1.000  C
  C130     1.0000 0.21890  0.72685  0.57960  Biso   1.000  C
  C131     1.0000 0.28110  0.22685  0.92040  Biso   1.000  C
  C132     1.0000 0.71890  0.22685  0.57960  Biso   1.000  C
  C133     1.0000 0.21890  0.27315  0.07960  Biso   1.000  C
  C134     1.0000 0.78110  0.27315  0.42040  Biso   1.000  C
  C135     1.0000 0.71890  0.77315  0.07960  Biso   1.000  C
  C136     1.0000 0.28110  0.77315  0.42040  Biso   1.000  C
  H129     1.0000 0.83330  0.74000  0.97620  Biso   1.000  H
  H130     1.0000 0.16670  0.74000  0.52380  Biso   1.000  H
  H131     1.0000 0.33330  0.24000  0.97620  Biso   1.000  H
  H132     1.0000 0.66670  0.24000  0.52380  Biso   1.000  H
  H133     1.0000 0.16670  0.26000  0.02380  Biso   1.000  H
  H134     1.0000 0.83330  0.26000  0.47620  Biso   1.000  H
  H135     1.0000 0.66670  0.76000  0.02380  Biso   1.000  H
  H136     1.0000 0.33330  0.76000  0.47620  Biso   1.000  H
  C137     1.0000 0.94420  0.49218  0.60480  Biso   1.000  C
  C138     1.0000 0.05580  0.49218  0.89520  Biso   1.000  C
  C139     1.0000 0.44420  0.99218  0.60480  Biso   1.000  C
  C140     1.0000 0.55580  0.99218  0.89520  Biso   1.000  C
  C141     1.0000 0.05580  0.50782  0.39520  Biso   1.000  C
  C142     1.0000 0.94420  0.50782  0.10480  Biso   1.000  C
  C143     1.0000 0.55580  0.00782  0.39520  Biso   1.000  C
  C144     1.0000 0.44420  0.00782  0.10480  Biso   1.000  C
  H137     1.0000 0.99710  0.49110  0.59170  Biso   1.000  H
  H138     1.0000 0.00290  0.49110  0.90830  Biso   1.000  H
  H139     1.0000 0.49710  0.99110  0.59170  Biso   1.000  H
  H140     1.0000 0.50290  0.99110  0.90830  Biso   1.000  H
  H141     1.0000 0.00290  0.50890  0.40830  Biso   1.000  H
  H142     1.0000 0.99710  0.50890  0.09170  Biso   1.000  H
  H143     1.0000 0.50290  0.00890  0.40830  Biso   1.000  H
  H144     1.0000 0.49710  0.00890  0.09170  Biso   1.000  H
  C145     1.0000 0.71460  0.75418  0.84680  Biso   1.000  C
  C146     1.0000 0.28540  0.75418  0.65320  Biso   1.000  C
  C147     1.0000 0.21460  0.25418  0.84680  Biso   1.000  C
  C148     1.0000 0.78540  0.25418  0.65320  Biso   1.000  C
  C149     1.0000 0.28540  0.24582  0.15320  Biso   1.000  C
  C150     1.0000 0.71460  0.24582  0.34680  Biso   1.000  C
  C151     1.0000 0.78540  0.74582  0.15320  Biso   1.000  C
  C152     1.0000 0.21460  0.74582  0.34680  Biso   1.000  C
  H145     1.0000 0.71970  0.78650  0.85140  Biso   1.000  H
  H146     1.0000 0.28030  0.78650  0.64860  Biso   1.000  H
  H147     1.0000 0.21970  0.28650  0.85140  Biso   1.000  H
  H148     1.0000 0.78030  0.28650  0.64860  Biso   1.000  H
  H149     1.0000 0.28030  0.21350  0.14860  Biso   1.000  H
  H150     1.0000 0.71970  0.21350  0.35140  Biso   1.000  H
  H151     1.0000 0.78030  0.71350  0.14860  Biso   1.000  H
  H152     1.0000 0.21970  0.71350  0.35140  Biso   1.000  H
  C153     1.0000 0.89510  0.45305  0.60120  Biso   1.000  C
  C154     1.0000 0.10490  0.45305  0.89880  Biso   1.000  C
  C155     1.0000 0.39510  0.95305  0.60120  Biso   1.000  C
  C156     1.0000 0.60490  0.95305  0.89880  Biso   1.000  C
  C157     1.0000 0.10490  0.54695  0.39880  Biso   1.000  C
  C158     1.0000 0.89510  0.54695  0.10120  Biso   1.000  C
  C159     1.0000 0.60490  0.04695  0.39880  Biso   1.000  C
  C160     1.0000 0.39510  0.04695  0.10120  Biso   1.000  C
  H153     1.0000 0.91350  0.42450  0.58590  Biso   1.000  H
  H154     1.0000 0.08650  0.42450  0.91410  Biso   1.000  H
  H155     1.0000 0.41350  0.92450  0.58590  Biso   1.000  H
  H156     1.0000 0.58650  0.92450  0.91410  Biso   1.000  H
  H157     1.0000 0.08650  0.57550  0.41410  Biso   1.000  H
  H158     1.0000 0.91350  0.57550  0.08590  Biso   1.000  H
  H159     1.0000 0.58650  0.07550  0.41410  Biso   1.000  H
  H160     1.0000 0.41350  0.07550  0.08590  Biso   1.000  H
  C161     1.0000 0.83410  0.95755  0.61060  Biso   1.000  C
  C162     1.0000 0.16590  0.95755  0.88940  Biso   1.000  C
  C163     1.0000 0.33410  0.45755  0.61060  Biso   1.000  C
  C164     1.0000 0.66590  0.45755  0.88940  Biso   1.000  C
  C165     1.0000 0.16590  0.04245  0.38940  Biso   1.000  C
  C166     1.0000 0.83410  0.04245  0.11060  Biso   1.000  C
  C167     1.0000 0.66590  0.54245  0.38940  Biso   1.000  C
  C168     1.0000 0.33410  0.54245  0.11060  Biso   1.000  C
  C169     1.0000 0.61340  0.23106  0.73870  Biso   1.000  C
  C170     1.0000 0.38660  0.23106  0.76130  Biso   1.000  C
  C171     1.0000 0.11340  0.73106  0.73870  Biso   1.000  C
  C172     1.0000 0.88660  0.73106  0.76130  Biso   1.000  C
  C173     1.0000 0.38660  0.76894  0.26130  Biso   1.000  C
  C174     1.0000 0.61340  0.76894  0.23870  Biso   1.000  C
  C175     1.0000 0.88660  0.26894  0.26130  Biso   1.000  C
  C176     1.0000 0.11340  0.26894  0.23870  Biso   1.000  C
  C177     1.0000 0.79730  0.99688  0.63100  Biso   1.000  C
  C178     1.0000 0.20270  0.99688  0.86900  Biso   1.000  C
  C179     1.0000 0.29730  0.49688  0.63100  Biso   1.000  C
  C180     1.0000 0.70270  0.49688  0.86900  Biso   1.000  C
  C181     1.0000 0.20270  0.00312  0.36900  Biso   1.000  C
  C182     1.0000 0.79730  0.00312  0.13100  Biso   1.000  C
  C183     1.0000 0.70270  0.50312  0.36900  Biso   1.000  C
  C184     1.0000 0.29730  0.50312  0.13100  Biso   1.000  C
  H161     1.0000 0.74130  0.99480  0.63830  Biso   1.000  H
  H162     1.0000 0.25870  0.99480  0.86170  Biso   1.000  H
  H163     1.0000 0.24130  0.49480  0.63830  Biso   1.000  H
  H164     1.0000 0.75870  0.49480  0.86170  Biso   1.000  H
  H165     1.0000 0.25870  0.00520  0.36170  Biso   1.000  H
  H166     1.0000 0.74130  0.00520  0.13830  Biso   1.000  H
  H167     1.0000 0.75870  0.50520  0.36170  Biso   1.000  H
  H168     1.0000 0.24130  0.50520  0.13830  Biso   1.000  H
  C185     1.0000 0.61180  0.18397  0.74060  Biso   1.000  C
  C186     1.0000 0.38820  0.18397  0.75940  Biso   1.000  C
  C187     1.0000 0.11180  0.68397  0.74060  Biso   1.000  C
  C188     1.0000 0.88820  0.68397  0.75940  Biso   1.000  C
  C189     1.0000 0.38820  0.81603  0.25940  Biso   1.000  C
  C190     1.0000 0.61180  0.81603  0.24060  Biso   1.000  C
  C191     1.0000 0.88820  0.31603  0.25940  Biso   1.000  C
  C192     1.0000 0.11180  0.31603  0.24060  Biso   1.000  C
  H169     1.0000 0.56250  0.16830  0.68650  Biso   1.000  H
  H170     1.0000 0.43750  0.16830  0.81350  Biso   1.000  H
  H171     1.0000 0.06250  0.66830  0.68650  Biso   1.000  H
  H172     1.0000 0.93750  0.66830  0.81350  Biso   1.000  H
  H173     1.0000 0.43750  0.83170  0.31350  Biso   1.000  H
  H174     1.0000 0.56250  0.83170  0.18650  Biso   1.000  H
  H175     1.0000 0.93750  0.33170  0.31350  Biso   1.000  H
  H176     1.0000 0.06250  0.33170  0.18650  Biso   1.000  H
  C193     1.0000 0.91760  0.03979  0.62950  Biso   1.000  C
  C194     1.0000 0.08240  0.03979  0.87050  Biso   1.000  C
  C195     1.0000 0.41760  0.53979  0.62950  Biso   1.000  C
  C196     1.0000 0.58240  0.53979  0.87050  Biso   1.000  C
  C197     1.0000 0.08240  0.96021  0.37050  Biso   1.000  C
  C198     1.0000 0.91760  0.96021  0.12950  Biso   1.000  C
  C199     1.0000 0.58240  0.46021  0.37050  Biso   1.000  C
  C200     1.0000 0.41760  0.46021  0.12950  Biso   1.000  C
  H177     1.0000 0.94780  0.06860  0.63690  Biso   1.000  H
  H178     1.0000 0.05220  0.06860  0.86310  Biso   1.000  H
  H179     1.0000 0.44780  0.56860  0.63690  Biso   1.000  H
  H180     1.0000 0.55220  0.56860  0.86310  Biso   1.000  H
  H181     1.0000 0.05220  0.93140  0.36310  Biso   1.000  H
  H182     1.0000 0.94780  0.93140  0.13690  Biso   1.000  H
  H183     1.0000 0.55220  0.43140  0.36310  Biso   1.000  H
  H184     1.0000 0.44780  0.43140  0.13690  Biso   1.000  H
  C201     1.0000 0.74530  0.18267  0.89290  Biso   1.000  C
  C202     1.0000 0.25470  0.18267  0.60710  Biso   1.000  C
  C203     1.0000 0.24530  0.68267  0.89290  Biso   1.000  C
  C204     1.0000 0.75470  0.68267  0.60710  Biso   1.000  C
  C205     1.0000 0.25470  0.81733  0.10710  Biso   1.000  C
  C206     1.0000 0.74530  0.81733  0.39290  Biso   1.000  C
  C207     1.0000 0.75470  0.31733  0.10710  Biso   1.000  C
  C208     1.0000 0.24530  0.31733  0.39290  Biso   1.000  C
  H185     1.0000 0.79170  0.16580  0.94720  Biso   1.000  H
  H186     1.0000 0.20830  0.16580  0.55280  Biso   1.000  H
  H187     1.0000 0.29170  0.66580  0.94720  Biso   1.000  H
  H188     1.0000 0.70830  0.66580  0.55280  Biso   1.000  H
  H189     1.0000 0.20830  0.83420  0.05280  Biso   1.000  H
  H190     1.0000 0.79170  0.83420  0.44720  Biso   1.000  H
  H191     1.0000 0.70830  0.33420  0.05280  Biso   1.000  H
  H192     1.0000 0.29170  0.33420  0.44720  Biso   1.000  H
  C209     1.0000 0.95770  0.00225  0.60780  Biso   1.000  C
  C210     1.0000 0.04230  0.00225  0.89220  Biso   1.000  C
  C211     1.0000 0.45770  0.50225  0.60780  Biso   1.000  C
  C212     1.0000 0.54230  0.50225  0.89220  Biso   1.000  C
  C213     1.0000 0.04230  0.99775  0.39220  Biso   1.000  C
  C214     1.0000 0.95770  0.99775  0.10780  Biso   1.000  C
  C215     1.0000 0.54230  0.49775  0.39220  Biso   1.000  C
  C216     1.0000 0.45770  0.49775  0.10780  Biso   1.000  C
  H193     1.0000 0.01320  0.00530  0.59970  Biso   1.000  H
  H194     1.0000 0.98680  0.00530  0.90030  Biso   1.000  H
  H195     1.0000 0.51320  0.50530  0.59970  Biso   1.000  H
  H196     1.0000 0.48680  0.50530  0.90030  Biso   1.000  H
  H197     1.0000 0.98680  0.99470  0.40030  Biso   1.000  H
  H198     1.0000 0.01320  0.99470  0.09970  Biso   1.000  H
  H199     1.0000 0.48680  0.49470  0.40030  Biso   1.000  H
  H200     1.0000 0.51320  0.49470  0.09970  Biso   1.000  H
  C217     1.0000 0.75040  0.22948  0.89610  Biso   1.000  C
  C218     1.0000 0.24960  0.22948  0.60390  Biso   1.000  C
  C219     1.0000 0.25040  0.72948  0.89610  Biso   1.000  C
  C220     1.0000 0.74960  0.72948  0.60390  Biso   1.000  C
  C221     1.0000 0.24960  0.77052  0.10390  Biso   1.000  C
  C222     1.0000 0.75040  0.77052  0.39610  Biso   1.000  C
  C223     1.0000 0.74960  0.27052  0.10390  Biso   1.000  C
  C224     1.0000 0.25040  0.27052  0.39610  Biso   1.000  C
  H201     1.0000 0.79980  0.24450  0.95130  Biso   1.000  H
  H202     1.0000 0.20020  0.24450  0.54870  Biso   1.000  H
  H203     1.0000 0.29980  0.74450  0.95130  Biso   1.000  H
  H204     1.0000 0.70020  0.74450  0.54870  Biso   1.000  H
  H205     1.0000 0.20020  0.75550  0.04870  Biso   1.000  H
  H206     1.0000 0.79980  0.75550  0.45130  Biso   1.000  H
  H207     1.0000 0.70020  0.25550  0.04870  Biso   1.000  H
  H208     1.0000 0.29980  0.25550  0.45130  Biso   1.000  H
  C225     1.0000 0.91480  0.96076  0.59840  Biso   1.000  C
  C226     1.0000 0.08520  0.96076  0.90160  Biso   1.000  C
  C227     1.0000 0.41480  0.46076  0.59840  Biso   1.000  C
  C228     1.0000 0.58520  0.46076  0.90160  Biso   1.000  C
  C229     1.0000 0.08520  0.03924  0.40160  Biso   1.000  C
  C230     1.0000 0.91480  0.03924  0.09840  Biso   1.000  C
  C231     1.0000 0.58520  0.53924  0.40160  Biso   1.000  C
  C232     1.0000 0.41480  0.53924  0.09840  Biso   1.000  C
  H209     1.0000 0.94030  0.93430  0.58350  Biso   1.000  H
  H210     1.0000 0.05970  0.93430  0.91650  Biso   1.000  H
  H211     1.0000 0.44030  0.43430  0.58350  Biso   1.000  H
  H212     1.0000 0.55970  0.43430  0.91650  Biso   1.000  H
  H213     1.0000 0.05970  0.06570  0.41650  Biso   1.000  H
  H214     1.0000 0.94030  0.06570  0.08350  Biso   1.000  H
  H215     1.0000 0.55970  0.56570  0.41650  Biso   1.000  H
  H216     1.0000 0.44030  0.56570  0.08350  Biso   1.000  H
  C233     1.0000 0.68320  0.25436  0.81840  Biso   1.000  C
  C234     1.0000 0.31680  0.25436  0.68160  Biso   1.000  C
  C235     1.0000 0.18320  0.75436  0.81840  Biso   1.000  C
  C236     1.0000 0.81680  0.75436  0.68160  Biso   1.000  C
  C237     1.0000 0.31680  0.74564  0.18160  Biso   1.000  C
  C238     1.0000 0.68320  0.74564  0.31840  Biso   1.000  C
  C239     1.0000 0.81680  0.24564  0.18160  Biso   1.000  C
  C240     1.0000 0.18320  0.24564  0.31840  Biso   1.000  C
  H217     1.0000 0.68470  0.28680  0.81950  Biso   1.000  H
  H218     1.0000 0.31530  0.28680  0.68050  Biso   1.000  H
  H219     1.0000 0.18470  0.78680  0.81950  Biso   1.000  H
  H220     1.0000 0.81530  0.78680  0.68050  Biso   1.000  H
  H221     1.0000 0.31530  0.71320  0.18050  Biso   1.000  H
  H222     1.0000 0.68470  0.71320  0.31950  Biso   1.000  H
  H223     1.0000 0.81530  0.21320  0.18050  Biso   1.000  H
  H224     1.0000 0.18470  0.21320  0.31950  Biso   1.000  H
