data_image0
_cell_length_a       14.6513
_cell_length_b       14.6513
_cell_length_c       19.1456
_cell_angle_alpha    90
_cell_angle_beta     90
_cell_angle_gamma    90

_symmetry_space_group_name_H-M    "P 1"
_symmetry_int_tables_number       1

loop_
  _symmetry_equiv_pos_as_xyz
  'x, y, z'

loop_
  _atom_site_label
  _atom_site_occupancy
  _atom_site_fract_x
  _atom_site_fract_y
  _atom_site_fract_z
  _atom_site_thermal_displace_type
  _atom_site_B_iso_or_equiv
  _atom_site_type_symbol
  P1       1.0000 0.50000  0.50000  0.85090  Biso   1.000  P
  P2       1.0000 0.00000  0.00000  0.35090  Biso   1.000  P
  Mo1      1.0000 0.67060  0.48952  0.98309  Biso   1.000  Mo
  Mo2      1.0000 0.32940  0.51048  0.98309  Biso   1.000  Mo
  Mo3      1.0000 0.51048  0.67060  0.98309  Biso   1.000  Mo
  Mo4      1.0000 0.48952  0.32940  0.98309  Biso   1.000  Mo
  Mo5      1.0000 0.17060  0.01048  0.48309  Biso   1.000  Mo
  Mo6      1.0000 0.82940  0.98952  0.48309  Biso   1.000  Mo
  Mo7      1.0000 0.01048  0.82940  0.48309  Biso   1.000  Mo
  Mo8      1.0000 0.98952  0.17060  0.48309  Biso   1.000  Mo
  Mo9      1.0000 0.68056  0.66204  0.85185  Biso   1.000  Mo
  Mo10     1.0000 0.31944  0.33796  0.85185  Biso   1.000  Mo
  Mo11     1.0000 0.33796  0.68056  0.85185  Biso   1.000  Mo
  Mo12     1.0000 0.66204  0.31944  0.85185  Biso   1.000  Mo
  Mo13     1.0000 0.18056  0.83796  0.35185  Biso   1.000  Mo
  Mo14     1.0000 0.81944  0.16204  0.35185  Biso   1.000  Mo
  Mo15     1.0000 0.83796  0.81944  0.35185  Biso   1.000  Mo
  Mo16     1.0000 0.16204  0.18056  0.35185  Biso   1.000  Mo
  Mo17     1.0000 0.50972  0.67235  0.72176  Biso   1.000  Mo
  Mo18     1.0000 0.49028  0.32765  0.72176  Biso   1.000  Mo
  Mo19     1.0000 0.32765  0.50972  0.72176  Biso   1.000  Mo
  Mo20     1.0000 0.67235  0.49028  0.72176  Biso   1.000  Mo
  Mo21     1.0000 0.00972  0.82765  0.22176  Biso   1.000  Mo
  Mo22     1.0000 0.99028  0.17235  0.22176  Biso   1.000  Mo
  Mo23     1.0000 0.82765  0.99028  0.22176  Biso   1.000  Mo
  Mo24     1.0000 0.17235  0.00972  0.22176  Biso   1.000  Mo
  Cu1      1.0000 0.46580  0.33572  0.41776  Biso   1.000  Cu
  Cu2      1.0000 0.53420  0.66428  0.41776  Biso   1.000  Cu
  Cu3      1.0000 0.66428  0.46580  0.41776  Biso   1.000  Cu
  Cu4      1.0000 0.33572  0.53420  0.41776  Biso   1.000  Cu
  Cu5      1.0000 0.96580  0.16428  0.91776  Biso   1.000  Cu
  Cu6      1.0000 0.03420  0.83572  0.91776  Biso   1.000  Cu
  Cu7      1.0000 0.16428  0.03420  0.91776  Biso   1.000  Cu
  Cu8      1.0000 0.83572  0.96580  0.91776  Biso   1.000  Cu
  Cl1      1.0000 0.50000  0.50000  0.40280  Biso   1.000  Cl
  Cl2      1.0000 0.00000  0.00000  0.90280  Biso   1.000  Cl
  S1       1.0000 0.52675  0.12886  0.32257  Biso   1.000  S
  S2       1.0000 0.47325  0.87114  0.32257  Biso   1.000  S
  S3       1.0000 0.87114  0.52675  0.32257  Biso   1.000  S
  S4       1.0000 0.12886  0.47325  0.32257  Biso   1.000  S
  S5       1.0000 0.02675  0.37114  0.82257  Biso   1.000  S
  S6       1.0000 0.97325  0.62886  0.82257  Biso   1.000  S
  S7       1.0000 0.37114  0.97325  0.82257  Biso   1.000  S
  S8       1.0000 0.62886  0.02675  0.82257  Biso   1.000  S
  S9       1.0000 0.51829  0.13225  0.53001  Biso   1.000  S
  S10      1.0000 0.48171  0.86775  0.53001  Biso   1.000  S
  S11      1.0000 0.86775  0.51829  0.53001  Biso   1.000  S
  S12      1.0000 0.13225  0.48171  0.53001  Biso   1.000  S
  S13      1.0000 0.01829  0.36775  0.03001  Biso   1.000  S
  S14      1.0000 0.98171  0.63225  0.03001  Biso   1.000  S
  S15      1.0000 0.36775  0.98171  0.03001  Biso   1.000  S
  S16      1.0000 0.63225  0.01829  0.03001  Biso   1.000  S
  O1       1.0000 0.74930  0.48590  0.04520  Biso   1.000  O
  O2       1.0000 0.25070  0.51410  0.04520  Biso   1.000  O
  O3       1.0000 0.51410  0.74930  0.04520  Biso   1.000  O
  O4       1.0000 0.48590  0.25070  0.04520  Biso   1.000  O
  O5       1.0000 0.24930  0.01410  0.54520  Biso   1.000  O
  O6       1.0000 0.75070  0.98590  0.54520  Biso   1.000  O
  O7       1.0000 0.01410  0.75070  0.54520  Biso   1.000  O
  O8       1.0000 0.98590  0.24930  0.54520  Biso   1.000  O
  O9       1.0000 0.76530  0.73650  0.85710  Biso   1.000  O
  O10      1.0000 0.23470  0.26350  0.85710  Biso   1.000  O
  O11      1.0000 0.26350  0.76530  0.85710  Biso   1.000  O
  O12      1.0000 0.73650  0.23470  0.85710  Biso   1.000  O
  O13      1.0000 0.26530  0.76350  0.35710  Biso   1.000  O
  O14      1.0000 0.73470  0.23650  0.35710  Biso   1.000  O
  O15      1.0000 0.76350  0.73470  0.35710  Biso   1.000  O
  O16      1.0000 0.23650  0.26530  0.35710  Biso   1.000  O
  O17      1.0000 0.51090  0.74840  0.65850  Biso   1.000  O
  O18      1.0000 0.48910  0.25160  0.65850  Biso   1.000  O
  O19      1.0000 0.25160  0.51090  0.65850  Biso   1.000  O
  O20      1.0000 0.74840  0.48910  0.65850  Biso   1.000  O
  O21      1.0000 0.01090  0.75160  0.15850  Biso   1.000  O
  O22      1.0000 0.98910  0.24840  0.15850  Biso   1.000  O
  O23      1.0000 0.75160  0.98910  0.15850  Biso   1.000  O
  O24      1.0000 0.24840  0.01090  0.15850  Biso   1.000  O
  O25      1.0000 0.71830  0.57850  0.91980  Biso   1.000  O
  O26      1.0000 0.28170  0.42150  0.91980  Biso   1.000  O
  O27      1.0000 0.42150  0.71830  0.91980  Biso   1.000  O
  O28      1.0000 0.57850  0.28170  0.91980  Biso   1.000  O
  O29      1.0000 0.21830  0.92150  0.41980  Biso   1.000  O
  O30      1.0000 0.78170  0.07850  0.41980  Biso   1.000  O
  O31      1.0000 0.92150  0.78170  0.41980  Biso   1.000  O
  O32      1.0000 0.07850  0.21830  0.41980  Biso   1.000  O
  O33      1.0000 0.72220  0.57790  0.78270  Biso   1.000  O
  O34      1.0000 0.27780  0.42210  0.78270  Biso   1.000  O
  O35      1.0000 0.42210  0.72220  0.78270  Biso   1.000  O
  O36      1.0000 0.57790  0.27780  0.78270  Biso   1.000  O
  O37      1.0000 0.22220  0.92210  0.28270  Biso   1.000  O
  O38      1.0000 0.77780  0.07790  0.28270  Biso   1.000  O
  O39      1.0000 0.92210  0.77780  0.28270  Biso   1.000  O
  O40      1.0000 0.07790  0.22220  0.28270  Biso   1.000  O
  O41      1.0000 0.60170  0.71230  0.78230  Biso   1.000  O
  O42      1.0000 0.39830  0.28770  0.78230  Biso   1.000  O
  O43      1.0000 0.28770  0.60170  0.78230  Biso   1.000  O
  O44      1.0000 0.71230  0.39830  0.78230  Biso   1.000  O
  O45      1.0000 0.10170  0.78770  0.28230  Biso   1.000  O
  O46      1.0000 0.89830  0.21230  0.28230  Biso   1.000  O
  O47      1.0000 0.78770  0.89830  0.28230  Biso   1.000  O
  O48      1.0000 0.21230  0.10170  0.28230  Biso   1.000  O
  O49      1.0000 0.41340  0.59640  0.68680  Biso   1.000  O
  O50      1.0000 0.58660  0.40360  0.68680  Biso   1.000  O
  O51      1.0000 0.40360  0.41340  0.68680  Biso   1.000  O
  O52      1.0000 0.59640  0.58660  0.68680  Biso   1.000  O
  O53      1.0000 0.91340  0.90360  0.18680  Biso   1.000  O
  O54      1.0000 0.08660  0.09640  0.18680  Biso   1.000  O
  O55      1.0000 0.90360  0.08660  0.18680  Biso   1.000  O
  O56      1.0000 0.09640  0.91340  0.18680  Biso   1.000  O
  O57      1.0000 0.71140  0.40000  0.92030  Biso   1.000  O
  O58      1.0000 0.28860  0.60000  0.92030  Biso   1.000  O
  O59      1.0000 0.60000  0.71140  0.92030  Biso   1.000  O
  O60      1.0000 0.40000  0.28860  0.92030  Biso   1.000  O
  O61      1.0000 0.21140  0.10000  0.42030  Biso   1.000  O
  O62      1.0000 0.78860  0.90000  0.42030  Biso   1.000  O
  O63      1.0000 0.10000  0.78860  0.42030  Biso   1.000  O
  O64      1.0000 0.90000  0.21140  0.42030  Biso   1.000  O
  O65      1.0000 0.58310  0.40830  0.01640  Biso   1.000  O
  O66      1.0000 0.41690  0.59170  0.01640  Biso   1.000  O
  O67      1.0000 0.59170  0.58310  0.01640  Biso   1.000  O
  O68      1.0000 0.40830  0.41690  0.01640  Biso   1.000  O
  O69      1.0000 0.08310  0.09170  0.51640  Biso   1.000  O
  O70      1.0000 0.91690  0.90830  0.51640  Biso   1.000  O
  O71      1.0000 0.09170  0.91690  0.51640  Biso   1.000  O
  O72      1.0000 0.90830  0.08310  0.51640  Biso   1.000  O
  O73      1.0000 0.55800  0.43610  0.89830  Biso   1.000  O
  O74      1.0000 0.44200  0.56390  0.89830  Biso   1.000  O
  O75      1.0000 0.56390  0.55800  0.89830  Biso   1.000  O
  O76      1.0000 0.43610  0.44200  0.89830  Biso   1.000  O
  O77      1.0000 0.05800  0.06390  0.39830  Biso   1.000  O
  O78      1.0000 0.94200  0.93610  0.39830  Biso   1.000  O
  O79      1.0000 0.06390  0.94200  0.39830  Biso   1.000  O
  O80      1.0000 0.93610  0.05800  0.39830  Biso   1.000  O
  O81      1.0000 0.56430  0.55610  0.80600  Biso   1.000  O
  O82      1.0000 0.43570  0.44390  0.80600  Biso   1.000  O
  O83      1.0000 0.44390  0.56430  0.80600  Biso   1.000  O
  O84      1.0000 0.55610  0.43570  0.80600  Biso   1.000  O
  O85      1.0000 0.06430  0.94390  0.30600  Biso   1.000  O
  O86      1.0000 0.93570  0.05610  0.30600  Biso   1.000  O
  O87      1.0000 0.94390  0.93570  0.30600  Biso   1.000  O
  O88      1.0000 0.05610  0.06430  0.30600  Biso   1.000  O
  N1       1.0000 0.43910  0.29400  0.32110  Biso   1.000  N
  N2       1.0000 0.56090  0.70600  0.32110  Biso   1.000  N
  N3       1.0000 0.70600  0.43910  0.32110  Biso   1.000  N
  N4       1.0000 0.29400  0.56090  0.32110  Biso   1.000  N
  N5       1.0000 0.93910  0.20600  0.82110  Biso   1.000  N
  N6       1.0000 0.06090  0.79400  0.82110  Biso   1.000  N
  N7       1.0000 0.20600  0.06090  0.82110  Biso   1.000  N
  N8       1.0000 0.79400  0.93910  0.82110  Biso   1.000  N
  N9       1.0000 0.39070  0.34520  0.27450  Biso   1.000  N
  N10      1.0000 0.60930  0.65480  0.27450  Biso   1.000  N
  N11      1.0000 0.65480  0.39070  0.27450  Biso   1.000  N
  N12      1.0000 0.34520  0.60930  0.27450  Biso   1.000  N
  N13      1.0000 0.89070  0.15480  0.77450  Biso   1.000  N
  N14      1.0000 0.10930  0.84520  0.77450  Biso   1.000  N
  N15      1.0000 0.15480  0.10930  0.77450  Biso   1.000  N
  N16      1.0000 0.84520  0.89070  0.77450  Biso   1.000  N
  N17      1.0000 0.37760  0.29920  0.21920  Biso   1.000  N
  N18      1.0000 0.62240  0.70080  0.21920  Biso   1.000  N
  N19      1.0000 0.70080  0.37760  0.21920  Biso   1.000  N
  N20      1.0000 0.29920  0.62240  0.21920  Biso   1.000  N
  N21      1.0000 0.87760  0.20080  0.71920  Biso   1.000  N
  N22      1.0000 0.12240  0.79920  0.71920  Biso   1.000  N
  N23      1.0000 0.20080  0.12240  0.71920  Biso   1.000  N
  N24      1.0000 0.79920  0.87760  0.71920  Biso   1.000  N
  N25      1.0000 0.41980  0.21750  0.22780  Biso   1.000  N
  N26      1.0000 0.58020  0.78250  0.22780  Biso   1.000  N
  N27      1.0000 0.78250  0.41980  0.22780  Biso   1.000  N
  N28      1.0000 0.21750  0.58020  0.22780  Biso   1.000  N
  N29      1.0000 0.91980  0.28250  0.72780  Biso   1.000  N
  N30      1.0000 0.08020  0.71750  0.72780  Biso   1.000  N
  N31      1.0000 0.28250  0.08020  0.72780  Biso   1.000  N
  N32      1.0000 0.71750  0.91980  0.72780  Biso   1.000  N
  N33      1.0000 0.57510  0.29490  0.47370  Biso   1.000  N
  N34      1.0000 0.42490  0.70510  0.47370  Biso   1.000  N
  N35      1.0000 0.70510  0.57510  0.47370  Biso   1.000  N
  N36      1.0000 0.29490  0.42490  0.47370  Biso   1.000  N
  N37      1.0000 0.07510  0.20510  0.97370  Biso   1.000  N
  N38      1.0000 0.92490  0.79490  0.97370  Biso   1.000  N
  N39      1.0000 0.20510  0.92490  0.97370  Biso   1.000  N
  N40      1.0000 0.79490  0.07510  0.97370  Biso   1.000  N
  N41      1.0000 0.64690  0.35280  0.48140  Biso   1.000  N
  N42      1.0000 0.35310  0.64720  0.48140  Biso   1.000  N
  N43      1.0000 0.64720  0.64690  0.48140  Biso   1.000  N
  N44      1.0000 0.35280  0.35310  0.48140  Biso   1.000  N
  N45      1.0000 0.14690  0.14720  0.98140  Biso   1.000  N
  N46      1.0000 0.85310  0.85280  0.98140  Biso   1.000  N
  N47      1.0000 0.14720  0.85310  0.98140  Biso   1.000  N
  N48      1.0000 0.85280  0.14690  0.98140  Biso   1.000  N
  N49      1.0000 0.70380  0.32100  0.52570  Biso   1.000  N
  N50      1.0000 0.29620  0.67900  0.52570  Biso   1.000  N
  N51      1.0000 0.67900  0.70380  0.52570  Biso   1.000  N
  N52      1.0000 0.32100  0.29620  0.52570  Biso   1.000  N
  N53      1.0000 0.20380  0.17900  0.02570  Biso   1.000  N
  N54      1.0000 0.79620  0.82100  0.02570  Biso   1.000  N
  N55      1.0000 0.17900  0.79620  0.02570  Biso   1.000  N
  N56      1.0000 0.82100  0.20380  0.02570  Biso   1.000  N
  N57      1.0000 0.66750  0.24250  0.55100  Biso   1.000  N
  N58      1.0000 0.33250  0.75750  0.55100  Biso   1.000  N
  N59      1.0000 0.75750  0.66750  0.55100  Biso   1.000  N
  N60      1.0000 0.24250  0.33250  0.55100  Biso   1.000  N
  N61      1.0000 0.16750  0.25750  0.05100  Biso   1.000  N
  N62      1.0000 0.83250  0.74250  0.05100  Biso   1.000  N
  N63      1.0000 0.25750  0.83250  0.05100  Biso   1.000  N
  N64      1.0000 0.74250  0.16750  0.05100  Biso   1.000  N
  C1       1.0000 0.50000  0.00000  0.42480  Biso   1.000  C
  C2       1.0000 0.00000  0.50000  0.42480  Biso   1.000  C
  C3       1.0000 0.00000  0.50000  0.92480  Biso   1.000  C
  C4       1.0000 0.50000  0.00000  0.92480  Biso   1.000  C
  C5       1.0000 0.44560  0.06880  0.37900  Biso   1.000  C
  C6       1.0000 0.55440  0.93120  0.37900  Biso   1.000  C
  C7       1.0000 0.93120  0.44560  0.37900  Biso   1.000  C
  C8       1.0000 0.06880  0.55440  0.37900  Biso   1.000  C
  C9       1.0000 0.94560  0.43120  0.87900  Biso   1.000  C
  C10      1.0000 0.05440  0.56880  0.87900  Biso   1.000  C
  C11      1.0000 0.43120  0.05440  0.87900  Biso   1.000  C
  C12      1.0000 0.56880  0.94560  0.87900  Biso   1.000  C
  H1       1.0000 0.41360  0.11200  0.40850  Biso   1.000  H
  H2       1.0000 0.58640  0.88800  0.40850  Biso   1.000  H
  H3       1.0000 0.88800  0.41360  0.40850  Biso   1.000  H
  H4       1.0000 0.11200  0.58640  0.40850  Biso   1.000  H
  H5       1.0000 0.91360  0.38800  0.90850  Biso   1.000  H
  H6       1.0000 0.08640  0.61200  0.90850  Biso   1.000  H
  H7       1.0000 0.38800  0.08640  0.90850  Biso   1.000  H
  H8       1.0000 0.61200  0.91360  0.90850  Biso   1.000  H
  H9       1.0000 0.40100  0.03660  0.35080  Biso   1.000  H
  H10      1.0000 0.59900  0.96340  0.35080  Biso   1.000  H
  H11      1.0000 0.96340  0.40100  0.35080  Biso   1.000  H
  H12      1.0000 0.03660  0.59900  0.35080  Biso   1.000  H
  H13      1.0000 0.90100  0.46340  0.85080  Biso   1.000  H
  H14      1.0000 0.09900  0.53660  0.85080  Biso   1.000  H
  H15      1.0000 0.46340  0.09900  0.85080  Biso   1.000  H
  H16      1.0000 0.53660  0.90100  0.85080  Biso   1.000  H
  C13      1.0000 0.57140  0.05000  0.47000  Biso   1.000  C
  C14      1.0000 0.42860  0.95000  0.47000  Biso   1.000  C
  C15      1.0000 0.95000  0.57140  0.47000  Biso   1.000  C
  C16      1.0000 0.05000  0.42860  0.47000  Biso   1.000  C
  C17      1.0000 0.07140  0.45000  0.97000  Biso   1.000  C
  C18      1.0000 0.92860  0.55000  0.97000  Biso   1.000  C
  C19      1.0000 0.45000  0.92860  0.97000  Biso   1.000  C
  C20      1.0000 0.55000  0.07140  0.97000  Biso   1.000  C
  H17      1.0000 0.61390  0.08180  0.43980  Biso   1.000  H
  H18      1.0000 0.38610  0.91820  0.43980  Biso   1.000  H
  H19      1.0000 0.91820  0.61390  0.43980  Biso   1.000  H
  H20      1.0000 0.08180  0.38610  0.43980  Biso   1.000  H
  H21      1.0000 0.11390  0.41820  0.93980  Biso   1.000  H
  H22      1.0000 0.88610  0.58180  0.93980  Biso   1.000  H
  H23      1.0000 0.41820  0.88610  0.93980  Biso   1.000  H
  H24      1.0000 0.58180  0.11390  0.93980  Biso   1.000  H
  H25      1.0000 0.60560  0.00540  0.49690  Biso   1.000  H
  H26      1.0000 0.39440  0.99460  0.49690  Biso   1.000  H
  H27      1.0000 0.99460  0.60560  0.49690  Biso   1.000  H
  H28      1.0000 0.00540  0.39440  0.49690  Biso   1.000  H
  H29      1.0000 0.10560  0.49460  0.99690  Biso   1.000  H
  H30      1.0000 0.89440  0.50540  0.99690  Biso   1.000  H
  H31      1.0000 0.49460  0.89440  0.99690  Biso   1.000  H
  H32      1.0000 0.50540  0.10560  0.99690  Biso   1.000  H
  C21      1.0000 0.45800  0.21640  0.29060  Biso   1.000  C
  C22      1.0000 0.54200  0.78360  0.29060  Biso   1.000  C
  C23      1.0000 0.78360  0.45800  0.29060  Biso   1.000  C
  C24      1.0000 0.21640  0.54200  0.29060  Biso   1.000  C
  C25      1.0000 0.95800  0.28360  0.79060  Biso   1.000  C
  C26      1.0000 0.04200  0.71640  0.79060  Biso   1.000  C
  C27      1.0000 0.28360  0.04200  0.79060  Biso   1.000  C
  C28      1.0000 0.71640  0.95800  0.79060  Biso   1.000  C
  C29      1.0000 0.41600  0.14470  0.17620  Biso   1.000  C
  C30      1.0000 0.58400  0.85530  0.17620  Biso   1.000  C
  C31      1.0000 0.85530  0.41600  0.17620  Biso   1.000  C
  C32      1.0000 0.14470  0.58400  0.17620  Biso   1.000  C
  C33      1.0000 0.91600  0.35530  0.67620  Biso   1.000  C
  C34      1.0000 0.08400  0.64470  0.67620  Biso   1.000  C
  C35      1.0000 0.35530  0.08400  0.67620  Biso   1.000  C
  C36      1.0000 0.64470  0.91600  0.67620  Biso   1.000  C
  H33      1.0000 0.36720  0.15650  0.14390  Biso   1.000  H
  H34      1.0000 0.63280  0.84350  0.14390  Biso   1.000  H
  H35      1.0000 0.84350  0.36720  0.14390  Biso   1.000  H
  H36      1.0000 0.15650  0.63280  0.14390  Biso   1.000  H
  H37      1.0000 0.86720  0.34350  0.64390  Biso   1.000  H
  H38      1.0000 0.13280  0.65650  0.64390  Biso   1.000  H
  H39      1.0000 0.34350  0.13280  0.64390  Biso   1.000  H
  H40      1.0000 0.65650  0.86720  0.64390  Biso   1.000  H
  H41      1.0000 0.40540  0.08750  0.19930  Biso   1.000  H
  H42      1.0000 0.59460  0.91250  0.19930  Biso   1.000  H
  H43      1.0000 0.91250  0.40540  0.19930  Biso   1.000  H
  H44      1.0000 0.08750  0.59460  0.19930  Biso   1.000  H
  H45      1.0000 0.90540  0.41250  0.69930  Biso   1.000  H
  H46      1.0000 0.09460  0.58750  0.69930  Biso   1.000  H
  H47      1.0000 0.41250  0.09460  0.69930  Biso   1.000  H
  H48      1.0000 0.58750  0.90540  0.69930  Biso   1.000  H
  H49      1.0000 0.47280  0.14200  0.15130  Biso   1.000  H
  H50      1.0000 0.52720  0.85800  0.15130  Biso   1.000  H
  H51      1.0000 0.85800  0.47280  0.15130  Biso   1.000  H
  H52      1.0000 0.14200  0.52720  0.15130  Biso   1.000  H
  H53      1.0000 0.97280  0.35800  0.65130  Biso   1.000  H
  H54      1.0000 0.02720  0.64200  0.65130  Biso   1.000  H
  H55      1.0000 0.35800  0.02720  0.65130  Biso   1.000  H
  H56      1.0000 0.64200  0.97280  0.65130  Biso   1.000  H
  C37      1.0000 0.58930  0.22670  0.51650  Biso   1.000  C
  C38      1.0000 0.41070  0.77330  0.51650  Biso   1.000  C
  C39      1.0000 0.77330  0.58930  0.51650  Biso   1.000  C
  C40      1.0000 0.22670  0.41070  0.51650  Biso   1.000  C
  C41      1.0000 0.08930  0.27330  0.01650  Biso   1.000  C
  C42      1.0000 0.91070  0.72670  0.01650  Biso   1.000  C
  C43      1.0000 0.27330  0.91070  0.01650  Biso   1.000  C
  C44      1.0000 0.72670  0.08930  0.01650  Biso   1.000  C
  C45      1.0000 0.71190  0.19280  0.60720  Biso   1.000  C
  C46      1.0000 0.28810  0.80720  0.60720  Biso   1.000  C
  C47      1.0000 0.80720  0.71190  0.60720  Biso   1.000  C
  C48      1.0000 0.19280  0.28810  0.60720  Biso   1.000  C
  C49      1.0000 0.21190  0.30720  0.10720  Biso   1.000  C
  C50      1.0000 0.78810  0.69280  0.10720  Biso   1.000  C
  C51      1.0000 0.30720  0.78810  0.10720  Biso   1.000  C
  C52      1.0000 0.69280  0.21190  0.10720  Biso   1.000  C
  H57      1.0000 0.69200  0.21670  0.65140  Biso   1.000  H
  H58      1.0000 0.30800  0.78330  0.65140  Biso   1.000  H
  H59      1.0000 0.78330  0.69200  0.65140  Biso   1.000  H
  H60      1.0000 0.21670  0.30800  0.65140  Biso   1.000  H
  H61      1.0000 0.19200  0.28330  0.15140  Biso   1.000  H
  H62      1.0000 0.80800  0.71670  0.15140  Biso   1.000  H
  H63      1.0000 0.28330  0.80800  0.15140  Biso   1.000  H
  H64      1.0000 0.71670  0.19200  0.15140  Biso   1.000  H
  H65      1.0000 0.77680  0.19950  0.60320  Biso   1.000  H
  H66      1.0000 0.22320  0.80050  0.60320  Biso   1.000  H
  H67      1.0000 0.80050  0.77680  0.60320  Biso   1.000  H
  H68      1.0000 0.19950  0.22320  0.60320  Biso   1.000  H
  H69      1.0000 0.27680  0.30050  0.10320  Biso   1.000  H
  H70      1.0000 0.72320  0.69950  0.10320  Biso   1.000  H
  H71      1.0000 0.30050  0.72320  0.10320  Biso   1.000  H
  H72      1.0000 0.69950  0.27680  0.10320  Biso   1.000  H
  H73      1.0000 0.69610  0.12930  0.60430  Biso   1.000  H
  H74      1.0000 0.30390  0.87070  0.60430  Biso   1.000  H
  H75      1.0000 0.87070  0.69610  0.60430  Biso   1.000  H
  H76      1.0000 0.12930  0.30390  0.60430  Biso   1.000  H
  H77      1.0000 0.19610  0.37070  0.10430  Biso   1.000  H
  H78      1.0000 0.80390  0.62930  0.10430  Biso   1.000  H
  H79      1.0000 0.37070  0.80390  0.10430  Biso   1.000  H
  H80      1.0000 0.62930  0.19610  0.10430  Biso   1.000  H
