data_image0
_cell_length_a       13.132
_cell_length_b       5.29
_cell_length_c       16.479
_cell_angle_alpha    90
_cell_angle_beta     90
_cell_angle_gamma    90

_symmetry_space_group_name_H-M    "P 1"
_symmetry_int_tables_number       1

loop_
  _symmetry_equiv_pos_as_xyz
  'x, y, z'

loop_
  _atom_site_label
  _atom_site_occupancy
  _atom_site_fract_x
  _atom_site_fract_y
  _atom_site_fract_z
  _atom_site_thermal_displace_type
  _atom_site_B_iso_or_equiv
  _atom_site_type_symbol
  Cu1      1.0000 0.25000  0.00000  0.04739  Biso   1.000  Cu
  Cu2      1.0000 0.75000  0.00000  0.45261  Biso   1.000  Cu
  Cu3      1.0000 0.75000  0.00000  0.95261  Biso   1.000  Cu
  Cu4      1.0000 0.25000  0.00000  0.54739  Biso   1.000  Cu
  O1       1.0000 0.25000  0.00000  0.28910  Biso   1.000  O
  O2       1.0000 0.75000  0.00000  0.21090  Biso   1.000  O
  O3       1.0000 0.75000  0.00000  0.71090  Biso   1.000  O
  O4       1.0000 0.25000  0.00000  0.78910  Biso   1.000  O
  O5       1.0000 0.29460  0.16390  0.17580  Biso   1.000  O
  O6       1.0000 0.20540  0.83610  0.17580  Biso   1.000  O
  O7       1.0000 0.79460  0.83610  0.32420  Biso   1.000  O
  O8       1.0000 0.70540  0.16390  0.32420  Biso   1.000  O
  O9       1.0000 0.70540  0.83610  0.82420  Biso   1.000  O
  O10      1.0000 0.79460  0.16390  0.82420  Biso   1.000  O
  O11      1.0000 0.20540  0.16390  0.67580  Biso   1.000  O
  O12      1.0000 0.29460  0.83610  0.67580  Biso   1.000  O
  N1       1.0000 0.10590  0.02150  0.01340  Biso   1.000  N
  N2       1.0000 0.39410  0.97850  0.01340  Biso   1.000  N
  N3       1.0000 0.60590  0.97850  0.48660  Biso   1.000  N
  N4       1.0000 0.89410  0.02150  0.48660  Biso   1.000  N
  N5       1.0000 0.89410  0.97850  0.98660  Biso   1.000  N
  N6       1.0000 0.60590  0.02150  0.98660  Biso   1.000  N
  N7       1.0000 0.39410  0.02150  0.51340  Biso   1.000  N
  N8       1.0000 0.10590  0.97850  0.51340  Biso   1.000  N
  N9       1.0000 0.25000  0.00000  0.21610  Biso   1.000  N
  N10      1.0000 0.75000  0.00000  0.28390  Biso   1.000  N
  N11      1.0000 0.75000  0.00000  0.78390  Biso   1.000  N
  N12      1.0000 0.25000  0.00000  0.71610  Biso   1.000  N
  C1       1.0000 0.03920  0.17510  0.05210  Biso   1.000  C
  C2       1.0000 0.46080  0.82490  0.05210  Biso   1.000  C
  C3       1.0000 0.53920  0.82490  0.44790  Biso   1.000  C
  C4       1.0000 0.96080  0.17510  0.44790  Biso   1.000  C
  C5       1.0000 0.96080  0.82490  0.94790  Biso   1.000  C
  C6       1.0000 0.53920  0.17510  0.94790  Biso   1.000  C
  C7       1.0000 0.46080  0.17510  0.55210  Biso   1.000  C
  C8       1.0000 0.03920  0.82490  0.55210  Biso   1.000  C
  C9       1.0000 0.07450  0.36730  0.10490  Biso   1.000  C
  C10      1.0000 0.42550  0.63270  0.10490  Biso   1.000  C
  C11      1.0000 0.57450  0.63270  0.39510  Biso   1.000  C
  C12      1.0000 0.92550  0.36730  0.39510  Biso   1.000  C
  C13      1.0000 0.92550  0.63270  0.89510  Biso   1.000  C
  C14      1.0000 0.57450  0.36730  0.89510  Biso   1.000  C
  C15      1.0000 0.42550  0.36730  0.60490  Biso   1.000  C
  C16      1.0000 0.07450  0.63270  0.60490  Biso   1.000  C
  C17      1.0000 0.00760  0.51890  0.14390  Biso   1.000  C
  C18      1.0000 0.49240  0.48110  0.14390  Biso   1.000  C
  C19      1.0000 0.50760  0.48110  0.35610  Biso   1.000  C
  C20      1.0000 0.99240  0.51890  0.35610  Biso   1.000  C
  C21      1.0000 0.99240  0.48110  0.85610  Biso   1.000  C
  C22      1.0000 0.50760  0.51890  0.85610  Biso   1.000  C
  C23      1.0000 0.49240  0.51890  0.64390  Biso   1.000  C
  C24      1.0000 0.00760  0.48110  0.64390  Biso   1.000  C
  C25      1.0000 0.90080  0.48860  0.13330  Biso   1.000  C
  C26      1.0000 0.59920  0.51140  0.13330  Biso   1.000  C
  C27      1.0000 0.40080  0.51140  0.36670  Biso   1.000  C
  C28      1.0000 0.09920  0.48860  0.36670  Biso   1.000  C
  C29      1.0000 0.09920  0.51140  0.86670  Biso   1.000  C
  C30      1.0000 0.40080  0.48860  0.86670  Biso   1.000  C
  C31      1.0000 0.59920  0.48860  0.63330  Biso   1.000  C
  C32      1.0000 0.90080  0.51140  0.63330  Biso   1.000  C
  C33      1.0000 0.86470  0.31110  0.08190  Biso   1.000  C
  C34      1.0000 0.63530  0.68890  0.08190  Biso   1.000  C
  C35      1.0000 0.36470  0.68890  0.41810  Biso   1.000  C
  C36      1.0000 0.13530  0.31110  0.41810  Biso   1.000  C
  C37      1.0000 0.13530  0.68890  0.91810  Biso   1.000  C
  C38      1.0000 0.36470  0.31110  0.91810  Biso   1.000  C
  C39      1.0000 0.63530  0.31110  0.58190  Biso   1.000  C
  C40      1.0000 0.86470  0.68890  0.58190  Biso   1.000  C
  C41      1.0000 0.06820  0.84970  0.96140  Biso   1.000  C
  C42      1.0000 0.43180  0.15030  0.96140  Biso   1.000  C
  C43      1.0000 0.56820  0.15030  0.53860  Biso   1.000  C
  C44      1.0000 0.93180  0.84970  0.53860  Biso   1.000  C
  C45      1.0000 0.93180  0.15030  0.03860  Biso   1.000  C
  C46      1.0000 0.56820  0.84970  0.03860  Biso   1.000  C
  C47      1.0000 0.43180  0.84970  0.46140  Biso   1.000  C
  C48      1.0000 0.06820  0.15030  0.46140  Biso   1.000  C
  H1       1.0000 0.14700  0.38810  0.11440  Biso   1.000  H
  H2       1.0000 0.35300  0.61190  0.11440  Biso   1.000  H
  H3       1.0000 0.64700  0.61190  0.38560  Biso   1.000  H
  H4       1.0000 0.85300  0.38810  0.38560  Biso   1.000  H
  H5       1.0000 0.85300  0.61190  0.88560  Biso   1.000  H
  H6       1.0000 0.64700  0.38810  0.88560  Biso   1.000  H
  H7       1.0000 0.35300  0.38810  0.61440  Biso   1.000  H
  H8       1.0000 0.14700  0.61190  0.61440  Biso   1.000  H
  H9       1.0000 0.03260  0.65270  0.17980  Biso   1.000  H
  H10      1.0000 0.46740  0.34730  0.17980  Biso   1.000  H
  H11      1.0000 0.53260  0.34730  0.32020  Biso   1.000  H
  H12      1.0000 0.96740  0.65270  0.32020  Biso   1.000  H
  H13      1.0000 0.96740  0.34730  0.82020  Biso   1.000  H
  H14      1.0000 0.53260  0.65270  0.82020  Biso   1.000  H
  H15      1.0000 0.46740  0.65270  0.67980  Biso   1.000  H
  H16      1.0000 0.03260  0.34730  0.67980  Biso   1.000  H
  H17      1.0000 0.85440  0.60090  0.16180  Biso   1.000  H
  H18      1.0000 0.64560  0.39910  0.16180  Biso   1.000  H
  H19      1.0000 0.35440  0.39910  0.33820  Biso   1.000  H
  H20      1.0000 0.14560  0.60090  0.33820  Biso   1.000  H
  H21      1.0000 0.14560  0.39910  0.83820  Biso   1.000  H
  H22      1.0000 0.35440  0.60090  0.83820  Biso   1.000  H
  H23      1.0000 0.64560  0.60090  0.66180  Biso   1.000  H
  H24      1.0000 0.85440  0.39910  0.66180  Biso   1.000  H
  H25      1.0000 0.79200  0.29050  0.07510  Biso   1.000  H
  H26      1.0000 0.70800  0.70950  0.07510  Biso   1.000  H
  H27      1.0000 0.29200  0.70950  0.42490  Biso   1.000  H
  H28      1.0000 0.20800  0.29050  0.42490  Biso   1.000  H
  H29      1.0000 0.20800  0.70950  0.92490  Biso   1.000  H
  H30      1.0000 0.29200  0.29050  0.92490  Biso   1.000  H
  H31      1.0000 0.70800  0.29050  0.57510  Biso   1.000  H
  H32      1.0000 0.79200  0.70950  0.57510  Biso   1.000  H
