data_image0
_cell_length_a       7.622
_cell_length_b       17.413
_cell_length_c       4.99
_cell_angle_alpha    93.61
_cell_angle_beta     108.96
_cell_angle_gamma    95.15

_symmetry_space_group_name_H-M    "P 1"
_symmetry_int_tables_number       1

loop_
  _symmetry_equiv_pos_as_xyz
  'x, y, z'

loop_
  _atom_site_label
  _atom_site_occupancy
  _atom_site_fract_x
  _atom_site_fract_y
  _atom_site_fract_z
  _atom_site_thermal_displace_type
  _atom_site_B_iso_or_equiv
  _atom_site_type_symbol
  Cu1      1.0000 0.70866  0.33958  0.50450  Biso   1.000  Cu
  Cu2      1.0000 0.29134  0.66042  0.49550  Biso   1.000  Cu
  Cu3      1.0000 0.68706  0.14698  0.49960  Biso   1.000  Cu
  Cu4      1.0000 0.31294  0.85302  0.50040  Biso   1.000  Cu
  P1       1.0000 0.84160  0.25103  0.07750  Biso   1.000  P
  P2       1.0000 0.15840  0.74897  0.92250  Biso   1.000  P
  F1       1.0000 0.06070  0.25080  0.19720  Biso   1.000  F
  F2       1.0000 0.93930  0.74920  0.80280  Biso   1.000  F
  O1       1.0000 0.81300  0.32310  0.93680  Biso   1.000  O
  O2       1.0000 0.18700  0.67690  0.06320  Biso   1.000  O
  O3       1.0000 0.77650  0.17560  0.89670  Biso   1.000  O
  O4       1.0000 0.22350  0.82440  0.10330  Biso   1.000  O
  O5       1.0000 0.78830  0.25070  0.34580  Biso   1.000  O
  O6       1.0000 0.21170  0.74930  0.65420  Biso   1.000  O
  N1       1.0000 0.57910  0.42990  0.47950  Biso   1.000  N
  N2       1.0000 0.42090  0.57010  0.52050  Biso   1.000  N
  N3       1.0000 0.56810  0.06160  0.21960  Biso   1.000  N
  N4       1.0000 0.43190  0.93840  0.78040  Biso   1.000  N
  C1       1.0000 0.77380  0.49290  0.24460  Biso   1.000  C
  C2       1.0000 0.22620  0.50710  0.75540  Biso   1.000  C
  C3       1.0000 0.63530  0.49500  0.37920  Biso   1.000  C
  C4       1.0000 0.36470  0.50500  0.62080  Biso   1.000  C
  C5       1.0000 0.44290  0.43430  0.59810  Biso   1.000  C
  C6       1.0000 0.55710  0.56570  0.40190  Biso   1.000  C
  C7       1.0000 0.37700  0.36850  0.70210  Biso   1.000  C
  C8       1.0000 0.62300  0.63150  0.29790  Biso   1.000  C
  C9       1.0000 0.24060  0.37260  0.82350  Biso   1.000  C
  C10      1.0000 0.75940  0.62740  0.17650  Biso   1.000  C
  C11      1.0000 0.83390  0.55750  0.14860  Biso   1.000  C
  C12      1.0000 0.16610  0.44250  0.85140  Biso   1.000  C
  C13      1.0000 0.77550  0.97960  0.50840  Biso   1.000  C
  C14      1.0000 0.22450  0.02040  0.49160  Biso   1.000  C
  C15      1.0000 0.63480  0.99240  0.24880  Biso   1.000  C
  C16      1.0000 0.36520  0.00760  0.75120  Biso   1.000  C
  C17      1.0000 0.43090  0.06960  0.97400  Biso   1.000  C
  C18      1.0000 0.56910  0.93040  0.02600  Biso   1.000  C
  C19      1.0000 0.34890  0.14020  0.93550  Biso   1.000  C
  C20      1.0000 0.65110  0.85980  0.06450  Biso   1.000  C
  C21      1.0000 0.21230  0.14870  0.69000  Biso   1.000  C
  C22      1.0000 0.78770  0.85130  0.31000  Biso   1.000  C
  C23      1.0000 0.84820  0.91120  0.53650  Biso   1.000  C
  C24      1.0000 0.15180  0.08880  0.46350  Biso   1.000  C
  H1       1.0000 0.82540  0.44550  0.22220  Biso   1.000  H
  H2       1.0000 0.17460  0.55450  0.77780  Biso   1.000  H
  H3       1.0000 0.42970  0.32060  0.68820  Biso   1.000  H
  H4       1.0000 0.57030  0.67940  0.31180  Biso   1.000  H
  H5       1.0000 0.19570  0.32740  0.89280  Biso   1.000  H
  H6       1.0000 0.80430  0.67260  0.10720  Biso   1.000  H
  H7       1.0000 0.92790  0.55620  0.05970  Biso   1.000  H
  H8       1.0000 0.07210  0.44380  0.94030  Biso   1.000  H
  H9       1.0000 0.82000  0.02010  0.66350  Biso   1.000  H
  H10      1.0000 0.18000  0.97990  0.33650  Biso   1.000  H
  H11      1.0000 0.39010  0.18170  0.08420  Biso   1.000  H
  H12      1.0000 0.60990  0.81830  0.91580  Biso   1.000  H
  H13      1.0000 0.15380  0.19600  0.66780  Biso   1.000  H
  H14      1.0000 0.84620  0.80400  0.33220  Biso   1.000  H
  H15      1.0000 0.94150  0.90350  0.71310  Biso   1.000  H
  H16      1.0000 0.05850  0.09650  0.28690  Biso   1.000  H
