data_image0
_cell_length_a       12.6392
_cell_length_b       12.9423
_cell_length_c       24.9861
_cell_angle_alpha    90
_cell_angle_beta     108.031
_cell_angle_gamma    90

_symmetry_space_group_name_H-M    "P 1"
_symmetry_int_tables_number       1

loop_
  _symmetry_equiv_pos_as_xyz
  'x, y, z'

loop_
  _atom_site_label
  _atom_site_occupancy
  _atom_site_fract_x
  _atom_site_fract_y
  _atom_site_fract_z
  _atom_site_thermal_displace_type
  _atom_site_B_iso_or_equiv
  _atom_site_type_symbol
  Co1      1.0000 0.41690  0.44387  0.79910  Biso   1.000  Co
  Co2      1.0000 0.58310  0.94387  0.70090  Biso   1.000  Co
  Co3      1.0000 0.58310  0.55613  0.20090  Biso   1.000  Co
  Co4      1.0000 0.41690  0.05613  0.29910  Biso   1.000  Co
  N1       1.0000 0.32360  0.30590  0.77660  Biso   1.000  N
  N2       1.0000 0.67640  0.80590  0.72340  Biso   1.000  N
  N3       1.0000 0.67640  0.69410  0.22340  Biso   1.000  N
  N4       1.0000 0.32360  0.19410  0.27660  Biso   1.000  N
  N5       1.0000 0.45250  0.36780  0.87740  Biso   1.000  N
  N6       1.0000 0.54750  0.86780  0.62260  Biso   1.000  N
  N7       1.0000 0.54750  0.63220  0.12260  Biso   1.000  N
  N8       1.0000 0.45250  0.13220  0.37740  Biso   1.000  N
  N9       1.0000 0.28230  0.52220  0.81550  Biso   1.000  N
  N10      1.0000 0.71770  0.02220  0.68450  Biso   1.000  N
  N11      1.0000 0.71770  0.47780  0.18450  Biso   1.000  N
  N12      1.0000 0.28230  0.97780  0.31550  Biso   1.000  N
  N13      1.0000 0.49220  0.58340  0.83630  Biso   1.000  N
  N14      1.0000 0.50780  0.08340  0.66370  Biso   1.000  N
  N15      1.0000 0.50780  0.41660  0.16370  Biso   1.000  N
  N16      1.0000 0.49220  0.91660  0.33630  Biso   1.000  N
  N17      1.0000 0.39110  0.49760  0.71650  Biso   1.000  N
  N18      1.0000 0.60890  0.99760  0.78350  Biso   1.000  N
  N19      1.0000 0.60890  0.50240  0.28350  Biso   1.000  N
  N20      1.0000 0.39110  0.00240  0.21650  Biso   1.000  N
  N21      1.0000 0.56310  0.39330  0.78090  Biso   1.000  N
  N22      1.0000 0.43690  0.89330  0.71910  Biso   1.000  N
  N23      1.0000 0.43690  0.60670  0.21910  Biso   1.000  N
  N24      1.0000 0.56310  0.10670  0.28090  Biso   1.000  N
  C1       1.0000 0.25680  0.28180  0.72520  Biso   1.000  C
  C2       1.0000 0.74320  0.78180  0.77480  Biso   1.000  C
  C3       1.0000 0.74320  0.71820  0.27480  Biso   1.000  C
  C4       1.0000 0.25680  0.21820  0.22520  Biso   1.000  C
  H1       1.0000 0.25910  0.32230  0.69480  Biso   1.000  H
  H2       1.0000 0.74090  0.82230  0.80520  Biso   1.000  H
  H3       1.0000 0.74090  0.67770  0.30520  Biso   1.000  H
  H4       1.0000 0.25910  0.17770  0.19480  Biso   1.000  H
  C5       1.0000 0.18490  0.19930  0.71570  Biso   1.000  C
  C6       1.0000 0.81510  0.69930  0.78430  Biso   1.000  C
  C7       1.0000 0.81510  0.80070  0.28430  Biso   1.000  C
  C8       1.0000 0.18490  0.30070  0.21570  Biso   1.000  C
  H5       1.0000 0.13930  0.18430  0.67950  Biso   1.000  H
  H6       1.0000 0.86070  0.68430  0.82050  Biso   1.000  H
  H7       1.0000 0.86070  0.81570  0.32050  Biso   1.000  H
  H8       1.0000 0.13930  0.31570  0.17950  Biso   1.000  H
  C9       1.0000 0.18120  0.13890  0.76070  Biso   1.000  C
  C10      1.0000 0.81880  0.63890  0.73930  Biso   1.000  C
  C11      1.0000 0.81880  0.86110  0.23930  Biso   1.000  C
  C12      1.0000 0.18120  0.36110  0.26070  Biso   1.000  C
  H9       1.0000 0.13330  0.08260  0.75510  Biso   1.000  H
  H10      1.0000 0.86670  0.58260  0.74490  Biso   1.000  H
  H11      1.0000 0.86670  0.91740  0.24490  Biso   1.000  H
  H12      1.0000 0.13330  0.41740  0.25510  Biso   1.000  H
  C13      1.0000 0.24880  0.16290  0.81330  Biso   1.000  C
  C14      1.0000 0.75120  0.66290  0.68670  Biso   1.000  C
  C15      1.0000 0.75120  0.83710  0.18670  Biso   1.000  C
  C16      1.0000 0.24880  0.33710  0.31330  Biso   1.000  C
  H13      1.0000 0.24650  0.12340  0.84400  Biso   1.000  H
  H14      1.0000 0.75350  0.62340  0.65600  Biso   1.000  H
  H15      1.0000 0.75350  0.87660  0.15600  Biso   1.000  H
  H16      1.0000 0.24650  0.37660  0.34400  Biso   1.000  H
  C17      1.0000 0.32170  0.24700  0.82110  Biso   1.000  C
  C18      1.0000 0.67830  0.74700  0.67890  Biso   1.000  C
  C19      1.0000 0.67830  0.75300  0.17890  Biso   1.000  C
  C20      1.0000 0.32170  0.25300  0.32110  Biso   1.000  C
  C21      1.0000 0.39750  0.27840  0.87590  Biso   1.000  C
  C22      1.0000 0.60250  0.77840  0.62410  Biso   1.000  C
  C23      1.0000 0.60250  0.72160  0.12410  Biso   1.000  C
  C24      1.0000 0.39750  0.22160  0.37590  Biso   1.000  C
  C25      1.0000 0.41360  0.21890  0.92380  Biso   1.000  C
  C26      1.0000 0.58640  0.71890  0.57620  Biso   1.000  C
  C27      1.0000 0.58640  0.78110  0.07620  Biso   1.000  C
  C28      1.0000 0.41360  0.28110  0.42380  Biso   1.000  C
  H17      1.0000 0.37360  0.15810  0.92230  Biso   1.000  H
  H18      1.0000 0.62640  0.65810  0.57770  Biso   1.000  H
  H19      1.0000 0.62640  0.84190  0.07770  Biso   1.000  H
  H20      1.0000 0.37360  0.34190  0.42230  Biso   1.000  H
  C29      1.0000 0.48880  0.25030  0.97330  Biso   1.000  C
  C30      1.0000 0.51120  0.75030  0.52670  Biso   1.000  C
  C31      1.0000 0.51120  0.74970  0.02670  Biso   1.000  C
  C32      1.0000 0.48880  0.24970  0.47330  Biso   1.000  C
  H21      1.0000 0.50220  0.20970  0.00540  Biso   1.000  H
  H22      1.0000 0.49780  0.70970  0.49460  Biso   1.000  H
  H23      1.0000 0.49780  0.79030  0.99460  Biso   1.000  H
  H24      1.0000 0.50220  0.29030  0.50540  Biso   1.000  H
  C33      1.0000 0.54400  0.34130  0.97530  Biso   1.000  C
  C34      1.0000 0.45600  0.84130  0.52470  Biso   1.000  C
  C35      1.0000 0.45600  0.65870  0.02470  Biso   1.000  C
  C36      1.0000 0.54400  0.15870  0.47530  Biso   1.000  C
  H25      1.0000 0.59440  0.36420  0.00880  Biso   1.000  H
  H26      1.0000 0.40560  0.86420  0.49120  Biso   1.000  H
  H27      1.0000 0.40560  0.63580  0.99120  Biso   1.000  H
  H28      1.0000 0.59440  0.13580  0.50880  Biso   1.000  H
  C37      1.0000 0.52360  0.39930  0.92650  Biso   1.000  C
  C38      1.0000 0.47640  0.89930  0.57350  Biso   1.000  C
  C39      1.0000 0.47640  0.60070  0.07350  Biso   1.000  C
  C40      1.0000 0.52360  0.10070  0.42650  Biso   1.000  C
  H29      1.0000 0.56030  0.46200  0.92790  Biso   1.000  H
  H30      1.0000 0.43970  0.96200  0.57210  Biso   1.000  H
  H31      1.0000 0.43970  0.53800  0.07210  Biso   1.000  H
  H32      1.0000 0.56030  0.03800  0.42790  Biso   1.000  H
  C41      1.0000 0.18100  0.48600  0.80730  Biso   1.000  C
  C42      1.0000 0.81900  0.98600  0.69270  Biso   1.000  C
  C43      1.0000 0.81900  0.51400  0.19270  Biso   1.000  C
  C44      1.0000 0.18100  0.01400  0.30730  Biso   1.000  C
  H33      1.0000 0.16210  0.42340  0.78840  Biso   1.000  H
  H34      1.0000 0.83790  0.92340  0.71160  Biso   1.000  H
  H35      1.0000 0.83790  0.57660  0.21160  Biso   1.000  H
  H36      1.0000 0.16210  0.07660  0.28840  Biso   1.000  H
  C45      1.0000 0.10190  0.53560  0.82510  Biso   1.000  C
  C46      1.0000 0.89810  0.03560  0.67490  Biso   1.000  C
  C47      1.0000 0.89810  0.46440  0.17490  Biso   1.000  C
  C48      1.0000 0.10190  0.96440  0.32510  Biso   1.000  C
  H37      1.0000 0.03210  0.50630  0.81930  Biso   1.000  H
  H38      1.0000 0.96790  0.00630  0.68070  Biso   1.000  H
  H39      1.0000 0.96790  0.49370  0.18070  Biso   1.000  H
  H40      1.0000 0.03210  0.99370  0.31930  Biso   1.000  H
  C49      1.0000 0.12810  0.62930  0.85150  Biso   1.000  C
  C50      1.0000 0.87190  0.12930  0.64850  Biso   1.000  C
  C51      1.0000 0.87190  0.37070  0.14850  Biso   1.000  C
  C52      1.0000 0.12810  0.87070  0.35150  Biso   1.000  C
  H41      1.0000 0.07540  0.66580  0.86280  Biso   1.000  H
  H42      1.0000 0.92460  0.16580  0.63720  Biso   1.000  H
  H43      1.0000 0.92460  0.33420  0.13720  Biso   1.000  H
  H44      1.0000 0.07540  0.83420  0.36280  Biso   1.000  H
  C53      1.0000 0.23270  0.66810  0.86100  Biso   1.000  C
  C54      1.0000 0.76730  0.16810  0.63900  Biso   1.000  C
  C55      1.0000 0.76730  0.33190  0.13900  Biso   1.000  C
  C56      1.0000 0.23270  0.83190  0.36100  Biso   1.000  C
  H45      1.0000 0.25230  0.73120  0.87920  Biso   1.000  H
  H46      1.0000 0.74770  0.23120  0.62080  Biso   1.000  H
  H47      1.0000 0.74770  0.26880  0.12080  Biso   1.000  H
  H48      1.0000 0.25230  0.76880  0.37920  Biso   1.000  H
  C57      1.0000 0.30880  0.61270  0.84330  Biso   1.000  C
  C58      1.0000 0.69120  0.11270  0.65670  Biso   1.000  C
  C59      1.0000 0.69120  0.38730  0.15670  Biso   1.000  C
  C60      1.0000 0.30880  0.88730  0.34330  Biso   1.000  C
  C61      1.0000 0.42570  0.64700  0.85400  Biso   1.000  C
  C62      1.0000 0.57430  0.14700  0.64600  Biso   1.000  C
  C63      1.0000 0.57430  0.35300  0.14600  Biso   1.000  C
  C64      1.0000 0.42570  0.85300  0.35400  Biso   1.000  C
  C65      1.0000 0.46710  0.73770  0.88370  Biso   1.000  C
  C66      1.0000 0.53290  0.23770  0.61630  Biso   1.000  C
  C67      1.0000 0.53290  0.26230  0.11630  Biso   1.000  C
  C68      1.0000 0.46710  0.76230  0.38370  Biso   1.000  C
  H49      1.0000 0.42020  0.78230  0.89490  Biso   1.000  H
  H50      1.0000 0.57980  0.28230  0.60510  Biso   1.000  H
  H51      1.0000 0.57980  0.21770  0.10510  Biso   1.000  H
  H52      1.0000 0.42020  0.71770  0.39490  Biso   1.000  H
  C69      1.0000 0.57880  0.75950  0.89580  Biso   1.000  C
  C70      1.0000 0.42120  0.25950  0.60420  Biso   1.000  C
  C71      1.0000 0.42120  0.24050  0.10420  Biso   1.000  C
  C72      1.0000 0.57880  0.74050  0.39580  Biso   1.000  C
  H53      1.0000 0.60820  0.81880  0.91590  Biso   1.000  H
  H54      1.0000 0.39180  0.31880  0.58410  Biso   1.000  H
  H55      1.0000 0.39180  0.18120  0.08410  Biso   1.000  H
  H56      1.0000 0.60820  0.68120  0.41590  Biso   1.000  H
  C73      1.0000 0.64740  0.69310  0.87810  Biso   1.000  C
  C74      1.0000 0.35260  0.19310  0.62190  Biso   1.000  C
  C75      1.0000 0.35260  0.30690  0.12190  Biso   1.000  C
  C76      1.0000 0.64740  0.80690  0.37810  Biso   1.000  C
  H57      1.0000 0.72330  0.70590  0.88690  Biso   1.000  H
  H58      1.0000 0.27670  0.20590  0.61310  Biso   1.000  H
  H59      1.0000 0.27670  0.29410  0.11310  Biso   1.000  H
  H60      1.0000 0.72330  0.79410  0.38690  Biso   1.000  H
  C77      1.0000 0.59980  0.60800  0.84740  Biso   1.000  C
  C78      1.0000 0.40020  0.10800  0.65260  Biso   1.000  C
  C79      1.0000 0.40020  0.39200  0.15260  Biso   1.000  C
  C80      1.0000 0.59980  0.89200  0.34740  Biso   1.000  C
  H61      1.0000 0.64440  0.56520  0.83360  Biso   1.000  H
  H62      1.0000 0.35560  0.06520  0.66640  Biso   1.000  H
  H63      1.0000 0.35560  0.43480  0.16640  Biso   1.000  H
  H64      1.0000 0.64440  0.93480  0.33360  Biso   1.000  H
  C81      1.0000 0.29920  0.54650  0.68400  Biso   1.000  C
  C82      1.0000 0.70080  0.04650  0.81600  Biso   1.000  C
  C83      1.0000 0.70080  0.45350  0.31600  Biso   1.000  C
  C84      1.0000 0.29920  0.95350  0.18400  Biso   1.000  C
  H65      1.0000 0.24030  0.55570  0.69850  Biso   1.000  H
  H66      1.0000 0.75970  0.05570  0.80150  Biso   1.000  H
  H67      1.0000 0.75970  0.44430  0.30150  Biso   1.000  H
  H68      1.0000 0.24030  0.94430  0.19850  Biso   1.000  H
  C85      1.0000 0.28710  0.58350  0.63080  Biso   1.000  C
  C86      1.0000 0.71290  0.08350  0.86920  Biso   1.000  C
  C87      1.0000 0.71290  0.41650  0.36920  Biso   1.000  C
  C88      1.0000 0.28710  0.91650  0.13080  Biso   1.000  C
  H69      1.0000 0.22250  0.61730  0.61020  Biso   1.000  H
  H70      1.0000 0.77750  0.11730  0.88980  Biso   1.000  H
  H71      1.0000 0.77750  0.38270  0.38980  Biso   1.000  H
  H72      1.0000 0.22250  0.88270  0.11020  Biso   1.000  H
  C89      1.0000 0.37250  0.56920  0.60940  Biso   1.000  C
  C90      1.0000 0.62750  0.06920  0.89060  Biso   1.000  C
  C91      1.0000 0.62750  0.43080  0.39060  Biso   1.000  C
  C92      1.0000 0.37250  0.93080  0.10940  Biso   1.000  C
  H73      1.0000 0.36710  0.59280  0.57350  Biso   1.000  H
  H74      1.0000 0.63290  0.09280  0.92650  Biso   1.000  H
  H75      1.0000 0.63290  0.40720  0.42650  Biso   1.000  H
  H76      1.0000 0.36710  0.90720  0.07350  Biso   1.000  H
  C93      1.0000 0.46770  0.51910  0.64150  Biso   1.000  C
  C94      1.0000 0.53230  0.01910  0.85850  Biso   1.000  C
  C95      1.0000 0.53230  0.48090  0.35850  Biso   1.000  C
  C96      1.0000 0.46770  0.98090  0.14150  Biso   1.000  C
  H77      1.0000 0.52700  0.50970  0.62740  Biso   1.000  H
  H78      1.0000 0.47300  0.00970  0.87260  Biso   1.000  H
  H79      1.0000 0.47300  0.49030  0.37260  Biso   1.000  H
  H80      1.0000 0.52700  0.99030  0.12740  Biso   1.000  H
  C97      1.0000 0.47480  0.48280  0.69470  Biso   1.000  C
  C98      1.0000 0.52520  0.98280  0.80530  Biso   1.000  C
  C99      1.0000 0.52520  0.51720  0.30530  Biso   1.000  C
  C100     1.0000 0.47480  0.01720  0.19470  Biso   1.000  C
  C101     1.0000 0.57210  0.42670  0.73150  Biso   1.000  C
  C102     1.0000 0.42790  0.92670  0.76850  Biso   1.000  C
  C103     1.0000 0.42790  0.57330  0.26850  Biso   1.000  C
  C104     1.0000 0.57210  0.07330  0.23150  Biso   1.000  C
  C105     1.0000 0.66820  0.40710  0.71740  Biso   1.000  C
  C106     1.0000 0.33180  0.90710  0.78260  Biso   1.000  C
  C107     1.0000 0.33180  0.59290  0.28260  Biso   1.000  C
  C108     1.0000 0.66820  0.09290  0.21740  Biso   1.000  C
  H81      1.0000 0.67400  0.42960  0.68310  Biso   1.000  H
  H82      1.0000 0.32600  0.92960  0.81690  Biso   1.000  H
  H83      1.0000 0.32600  0.57040  0.31690  Biso   1.000  H
  H84      1.0000 0.67400  0.07040  0.18310  Biso   1.000  H
  C109     1.0000 0.75530  0.35420  0.75460  Biso   1.000  C
  C110     1.0000 0.24470  0.85420  0.74540  Biso   1.000  C
  C111     1.0000 0.24470  0.64580  0.24540  Biso   1.000  C
  C112     1.0000 0.75530  0.14580  0.25460  Biso   1.000  C
  H85      1.0000 0.82010  0.34130  0.74550  Biso   1.000  H
  H86      1.0000 0.17990  0.84130  0.75450  Biso   1.000  H
  H87      1.0000 0.17990  0.65870  0.25450  Biso   1.000  H
  H88      1.0000 0.82010  0.15870  0.24550  Biso   1.000  H
  C113     1.0000 0.74560  0.32090  0.80470  Biso   1.000  C
  C114     1.0000 0.25440  0.82090  0.69530  Biso   1.000  C
  C115     1.0000 0.25440  0.67910  0.19530  Biso   1.000  C
  C116     1.0000 0.74560  0.17910  0.30470  Biso   1.000  C
  H89      1.0000 0.80290  0.28540  0.83060  Biso   1.000  H
  H90      1.0000 0.19710  0.78540  0.66940  Biso   1.000  H
  H91      1.0000 0.19710  0.71460  0.16940  Biso   1.000  H
  H92      1.0000 0.80290  0.21460  0.33060  Biso   1.000  H
  C117     1.0000 0.64770  0.34210  0.81540  Biso   1.000  C
  C118     1.0000 0.35230  0.84210  0.68460  Biso   1.000  C
  C119     1.0000 0.35230  0.65790  0.18460  Biso   1.000  C
  C120     1.0000 0.64770  0.15790  0.31540  Biso   1.000  C
  H93      1.0000 0.64020  0.31890  0.84920  Biso   1.000  H
  H94      1.0000 0.35980  0.81890  0.65080  Biso   1.000  H
  H95      1.0000 0.35980  0.68110  0.15080  Biso   1.000  H
  H96      1.0000 0.64020  0.18110  0.34920  Biso   1.000  H
  Pb1      1.0000 0.09357  0.96345  0.93398  Biso   1.000  Pb
  Pb2      1.0000 0.90643  0.46345  0.56602  Biso   1.000  Pb
  Pb3      1.0000 0.90643  0.03655  0.06602  Biso   1.000  Pb
  Pb4      1.0000 0.09357  0.53655  0.43398  Biso   1.000  Pb
  Pb5      1.0000 0.05679  0.30898  0.97973  Biso   1.000  Pb
  Pb6      1.0000 0.94321  0.80898  0.52027  Biso   1.000  Pb
  Pb7      1.0000 0.94321  0.69102  0.02027  Biso   1.000  Pb
  Pb8      1.0000 0.05679  0.19102  0.47973  Biso   1.000  Pb
  Br1      1.0000 0.03201  0.90012  0.82402  Biso   1.000  Br
  Br2      1.0000 0.96799  0.40012  0.67598  Biso   1.000  Br
  Br3      1.0000 0.96799  0.09988  0.17598  Biso   1.000  Br
  Br4      1.0000 0.03201  0.59988  0.32402  Biso   1.000  Br
  Br5      1.0000 0.02579  0.17544  0.88312  Biso   1.000  Br
  Br6      1.0000 0.97421  0.67544  0.61688  Biso   1.000  Br
  Br7      1.0000 0.97421  0.82456  0.11688  Biso   1.000  Br
  Br8      1.0000 0.02579  0.32456  0.38312  Biso   1.000  Br
  Br9      1.0000 0.13707  0.12570  0.04893  Biso   1.000  Br
  Br10     1.0000 0.86293  0.62570  0.45107  Biso   1.000  Br
  Br11     1.0000 0.86293  0.87430  0.95107  Biso   1.000  Br
  Br12     1.0000 0.13707  0.37430  0.54893  Biso   1.000  Br
  Br13     1.0000 0.25629  0.42670  0.97208  Biso   1.000  Br
  Br14     1.0000 0.74371  0.92670  0.52792  Biso   1.000  Br
  Br15     1.0000 0.74371  0.57330  0.02792  Biso   1.000  Br
  Br16     1.0000 0.25629  0.07330  0.47208  Biso   1.000  Br
  Br17     1.0000 0.07838  0.48369  0.07936  Biso   1.000  Br
  Br18     1.0000 0.92162  0.98369  0.42064  Biso   1.000  Br
  Br19     1.0000 0.92162  0.51631  0.92064  Biso   1.000  Br
  Br20     1.0000 0.07838  0.01631  0.57936  Biso   1.000  Br
  Br21     1.0000 0.32067  0.95662  0.94173  Biso   1.000  Br
  Br22     1.0000 0.67933  0.45662  0.55827  Biso   1.000  Br
  Br23     1.0000 0.67933  0.04338  0.05827  Biso   1.000  Br
  Br24     1.0000 0.32067  0.54338  0.44173  Biso   1.000  Br
  Br25     1.0000 0.83301  0.26410  0.99619  Biso   1.000  Br
  Br26     1.0000 0.16699  0.76410  0.50381  Biso   1.000  Br
  Br27     1.0000 0.16699  0.73590  0.00381  Biso   1.000  Br
  Br28     1.0000 0.83301  0.23590  0.49619  Biso   1.000  Br
  Cu1      1.0000 0.85253  0.44780  0.00263  Biso   1.000  Cu
  Cu2      1.0000 0.14747  0.94780  0.49737  Biso   1.000  Cu
  Cu3      1.0000 0.14747  0.55220  0.99737  Biso   1.000  Cu
  Cu4      1.0000 0.85253  0.05220  0.50263  Biso   1.000  Cu
