data_image0
_cell_length_a       10.153
_cell_length_b       11.638
_cell_length_c       26.775
_cell_angle_alpha    90
_cell_angle_beta     95.852
_cell_angle_gamma    90

_symmetry_space_group_name_H-M    "P 1"
_symmetry_int_tables_number       1

loop_
  _symmetry_equiv_pos_as_xyz
  'x, y, z'

loop_
  _atom_site_label
  _atom_site_occupancy
  _atom_site_fract_x
  _atom_site_fract_y
  _atom_site_fract_z
  _atom_site_thermal_displace_type
  _atom_site_B_iso_or_equiv
  _atom_site_type_symbol
  Cu1      1.0000 0.59117  0.08460  0.00960  Biso   1.000  Cu
  Cu2      1.0000 0.90883  0.58460  0.49040  Biso   1.000  Cu
  Cu3      1.0000 0.40883  0.91540  0.99040  Biso   1.000  Cu
  Cu4      1.0000 0.09117  0.41540  0.50960  Biso   1.000  Cu
  I1       1.0000 0.36567  0.09342  0.04927  Biso   1.000  I
  I2       1.0000 0.13433  0.59342  0.45073  Biso   1.000  I
  I3       1.0000 0.63433  0.90658  0.95073  Biso   1.000  I
  I4       1.0000 0.86567  0.40658  0.54927  Biso   1.000  I
  C1       1.0000 0.65740  0.22810  0.92330  Biso   1.000  C
  C2       1.0000 0.84260  0.72810  0.57670  Biso   1.000  C
  C3       1.0000 0.34260  0.77190  0.07670  Biso   1.000  C
  C4       1.0000 0.15740  0.27190  0.42330  Biso   1.000  C
  H1       1.0000 0.71260  0.16440  0.91760  Biso   1.000  H
  H2       1.0000 0.78740  0.66440  0.58240  Biso   1.000  H
  H3       1.0000 0.28740  0.83560  0.08240  Biso   1.000  H
  H4       1.0000 0.21260  0.33560  0.41760  Biso   1.000  H
  C5       1.0000 0.64480  0.31440  0.88750  Biso   1.000  C
  C6       1.0000 0.85520  0.81440  0.61250  Biso   1.000  C
  C7       1.0000 0.35520  0.68560  0.11250  Biso   1.000  C
  C8       1.0000 0.14480  0.18560  0.38750  Biso   1.000  C
  H5       1.0000 0.68790  0.30770  0.85780  Biso   1.000  H
  H6       1.0000 0.81210  0.80770  0.64220  Biso   1.000  H
  H7       1.0000 0.31210  0.69230  0.14220  Biso   1.000  H
  H8       1.0000 0.18790  0.19230  0.35780  Biso   1.000  H
  C9       1.0000 0.56920  0.41030  0.89530  Biso   1.000  C
  C10      1.0000 0.93080  0.91030  0.60470  Biso   1.000  C
  C11      1.0000 0.43080  0.58970  0.10470  Biso   1.000  C
  C12      1.0000 0.06920  0.08970  0.39530  Biso   1.000  C
  C13      1.0000 0.51240  0.41440  0.93950  Biso   1.000  C
  C14      1.0000 0.98760  0.91440  0.56050  Biso   1.000  C
  C15      1.0000 0.48760  0.58560  0.06050  Biso   1.000  C
  C16      1.0000 0.01240  0.08560  0.43950  Biso   1.000  C
  H9       1.0000 0.46260  0.47980  0.94750  Biso   1.000  H
  H10      1.0000 0.03740  0.97980  0.55250  Biso   1.000  H
  H11      1.0000 0.53740  0.52020  0.05250  Biso   1.000  H
  H12      1.0000 0.96260  0.02020  0.44750  Biso   1.000  H
  C17      1.0000 0.52780  0.32310  0.97220  Biso   1.000  C
  C18      1.0000 0.97220  0.82310  0.52780  Biso   1.000  C
  C19      1.0000 0.47220  0.67690  0.02780  Biso   1.000  C
  C20      1.0000 0.02780  0.17690  0.47220  Biso   1.000  C
  H13      1.0000 0.48590  0.32760  0.00230  Biso   1.000  H
  H14      1.0000 0.01410  0.82760  0.49770  Biso   1.000  H
  H15      1.0000 0.51410  0.67240  0.99770  Biso   1.000  H
  H16      1.0000 0.98590  0.17240  0.50230  Biso   1.000  H
  C21      1.0000 0.54520  0.50070  0.85610  Biso   1.000  C
  C22      1.0000 0.95480  0.00070  0.64390  Biso   1.000  C
  C23      1.0000 0.45480  0.49930  0.14390  Biso   1.000  C
  C24      1.0000 0.04520  0.99930  0.35610  Biso   1.000  C
  C25      1.0000 0.51250  0.46830  0.80630  Biso   1.000  C
  C26      1.0000 0.98750  0.96830  0.69370  Biso   1.000  C
  C27      1.0000 0.48750  0.53170  0.19370  Biso   1.000  C
  C28      1.0000 0.01250  0.03170  0.30630  Biso   1.000  C
  H17      1.0000 0.50760  0.38910  0.79770  Biso   1.000  H
  H18      1.0000 0.99240  0.88910  0.70230  Biso   1.000  H
  H19      1.0000 0.49240  0.61090  0.20230  Biso   1.000  H
  H20      1.0000 0.00760  0.11090  0.29770  Biso   1.000  H
  C29      1.0000 0.48700  0.55100  0.76940  Biso   1.000  C
  C30      1.0000 0.01300  0.05100  0.73060  Biso   1.000  C
  C31      1.0000 0.51300  0.44900  0.23060  Biso   1.000  C
  C32      1.0000 0.98700  0.94900  0.26940  Biso   1.000  C
  H21      1.0000 0.46120  0.52760  0.73590  Biso   1.000  H
  H22      1.0000 0.03880  0.02760  0.76410  Biso   1.000  H
  H23      1.0000 0.53880  0.47240  0.26410  Biso   1.000  H
  H24      1.0000 0.96120  0.97240  0.23590  Biso   1.000  H
  C33      1.0000 0.49840  0.66810  0.78050  Biso   1.000  C
  C34      1.0000 0.00160  0.16810  0.71950  Biso   1.000  C
  C35      1.0000 0.50160  0.33190  0.21950  Biso   1.000  C
  C36      1.0000 0.99840  0.83190  0.28050  Biso   1.000  C
  C37      1.0000 0.53230  0.69990  0.83040  Biso   1.000  C
  C38      1.0000 0.96770  0.19990  0.66960  Biso   1.000  C
  C39      1.0000 0.46770  0.30010  0.16960  Biso   1.000  C
  C40      1.0000 0.03230  0.80010  0.33040  Biso   1.000  C
  H25      1.0000 0.53980  0.77890  0.83910  Biso   1.000  H
  H26      1.0000 0.96020  0.27890  0.66090  Biso   1.000  H
  H27      1.0000 0.46020  0.22110  0.16090  Biso   1.000  H
  H28      1.0000 0.03980  0.72110  0.33910  Biso   1.000  H
  C41      1.0000 0.55500  0.61690  0.86720  Biso   1.000  C
  C42      1.0000 0.94500  0.11690  0.63280  Biso   1.000  C
  C43      1.0000 0.44500  0.38310  0.13280  Biso   1.000  C
  C44      1.0000 0.05500  0.88310  0.36720  Biso   1.000  C
  H29      1.0000 0.57790  0.64020  0.90090  Biso   1.000  H
  H30      1.0000 0.92210  0.14020  0.59910  Biso   1.000  H
  H31      1.0000 0.42210  0.35980  0.09910  Biso   1.000  H
  H32      1.0000 0.07790  0.85980  0.40090  Biso   1.000  H
  C45      1.0000 0.47000  0.75250  0.73912  Biso   1.000  C
  C46      1.0000 0.03000  0.25250  0.76088  Biso   1.000  C
  C47      1.0000 0.53000  0.24750  0.26088  Biso   1.000  C
  C48      1.0000 0.97000  0.74750  0.23912  Biso   1.000  C
  C49      1.0000 0.35660  0.72020  0.70170  Biso   1.000  C
  C50      1.0000 0.14340  0.22020  0.79830  Biso   1.000  C
  C51      1.0000 0.64340  0.27980  0.29830  Biso   1.000  C
  C52      1.0000 0.85660  0.77980  0.20170  Biso   1.000  C
  C53      1.0000 0.23640  0.68930  0.71740  Biso   1.000  C
  C54      1.0000 0.26360  0.18930  0.78260  Biso   1.000  C
  C55      1.0000 0.76360  0.31070  0.28260  Biso   1.000  C
  C56      1.0000 0.73640  0.81070  0.21740  Biso   1.000  C
  H33      1.0000 0.22350  0.69270  0.75200  Biso   1.000  H
  H34      1.0000 0.27650  0.19270  0.74800  Biso   1.000  H
  H35      1.0000 0.77650  0.30730  0.24800  Biso   1.000  H
  H36      1.0000 0.72350  0.80730  0.25200  Biso   1.000  H
  C57      1.0000 0.13340  0.65300  0.68230  Biso   1.000  C
  C58      1.0000 0.36660  0.15300  0.81770  Biso   1.000  C
  C59      1.0000 0.86660  0.34700  0.31770  Biso   1.000  C
  C60      1.0000 0.63340  0.84700  0.18230  Biso   1.000  C
  H37      1.0000 0.05080  0.63150  0.69330  Biso   1.000  H
  H38      1.0000 0.44920  0.13150  0.80670  Biso   1.000  H
  H39      1.0000 0.94920  0.36850  0.30670  Biso   1.000  H
  H40      1.0000 0.55080  0.86850  0.19330  Biso   1.000  H
  C61      1.0000 0.15020  0.64810  0.63250  Biso   1.000  C
  C62      1.0000 0.34980  0.14810  0.86750  Biso   1.000  C
  C63      1.0000 0.84980  0.35190  0.36750  Biso   1.000  C
  C64      1.0000 0.65020  0.85190  0.13250  Biso   1.000  C
  H41      1.0000 0.07990  0.62240  0.60900  Biso   1.000  H
  H42      1.0000 0.42010  0.12240  0.89100  Biso   1.000  H
  H43      1.0000 0.92010  0.37760  0.39100  Biso   1.000  H
  H44      1.0000 0.57990  0.87760  0.10900  Biso   1.000  H
  C65      1.0000 0.26680  0.67970  0.61650  Biso   1.000  C
  C66      1.0000 0.23320  0.17970  0.88350  Biso   1.000  C
  C67      1.0000 0.73320  0.32030  0.38350  Biso   1.000  C
  C68      1.0000 0.76680  0.82030  0.11650  Biso   1.000  C
  H45      1.0000 0.27770  0.67750  0.58170  Biso   1.000  H
  H46      1.0000 0.22230  0.17750  0.91830  Biso   1.000  H
  H47      1.0000 0.72230  0.32250  0.41830  Biso   1.000  H
  H48      1.0000 0.77770  0.82250  0.08170  Biso   1.000  H
  C69      1.0000 0.37090  0.71550  0.65070  Biso   1.000  C
  C70      1.0000 0.12910  0.21550  0.84930  Biso   1.000  C
  C71      1.0000 0.62910  0.28450  0.34930  Biso   1.000  C
  C72      1.0000 0.87090  0.78450  0.15070  Biso   1.000  C
  H49      1.0000 0.45270  0.73690  0.63910  Biso   1.000  H
  H50      1.0000 0.04730  0.23690  0.86090  Biso   1.000  H
  H51      1.0000 0.54730  0.26310  0.36090  Biso   1.000  H
  H52      1.0000 0.95270  0.76310  0.13910  Biso   1.000  H
  C73      1.0000 0.54360  0.84920  0.73404  Biso   1.000  C
  C74      1.0000 0.95640  0.34920  0.76596  Biso   1.000  C
  C75      1.0000 0.45640  0.15080  0.26596  Biso   1.000  C
  C76      1.0000 0.04360  0.65080  0.23404  Biso   1.000  C
  C77      1.0000 0.50310  0.93950  0.69595  Biso   1.000  C
  C78      1.0000 0.99690  0.43950  0.80405  Biso   1.000  C
  C79      1.0000 0.49690  0.06050  0.30405  Biso   1.000  C
  C80      1.0000 0.00310  0.56050  0.19595  Biso   1.000  C
  C81      1.0000 0.37390  0.97800  0.68750  Biso   1.000  C
  C82      1.0000 0.12610  0.47800  0.81250  Biso   1.000  C
  C83      1.0000 0.62610  0.02200  0.31250  Biso   1.000  C
  C84      1.0000 0.87390  0.52200  0.18750  Biso   1.000  C
  H53      1.0000 0.30980  0.95100  0.70810  Biso   1.000  H
  H54      1.0000 0.19020  0.45100  0.79190  Biso   1.000  H
  H55      1.0000 0.69020  0.04900  0.29190  Biso   1.000  H
  H56      1.0000 0.80980  0.54900  0.20810  Biso   1.000  H
  C85      1.0000 0.33610  0.05550  0.64930  Biso   1.000  C
  C86      1.0000 0.16390  0.55550  0.85070  Biso   1.000  C
  C87      1.0000 0.66390  0.94450  0.35070  Biso   1.000  C
  C88      1.0000 0.83610  0.44450  0.14930  Biso   1.000  C
  H57      1.0000 0.24720  0.08170  0.64420  Biso   1.000  H
  H58      1.0000 0.25280  0.58170  0.85580  Biso   1.000  H
  H59      1.0000 0.75280  0.91830  0.35580  Biso   1.000  H
  H60      1.0000 0.74720  0.41830  0.14420  Biso   1.000  H
  C89      1.0000 0.42750  0.09400  0.61880  Biso   1.000  C
  C90      1.0000 0.07250  0.59400  0.88120  Biso   1.000  C
  C91      1.0000 0.57250  0.90600  0.38120  Biso   1.000  C
  C92      1.0000 0.92750  0.40600  0.11880  Biso   1.000  C
  H61      1.0000 0.40080  0.14350  0.59140  Biso   1.000  H
  H62      1.0000 0.09920  0.64350  0.90860  Biso   1.000  H
  H63      1.0000 0.59920  0.85650  0.40860  Biso   1.000  H
  H64      1.0000 0.90080  0.35650  0.09140  Biso   1.000  H
  C93      1.0000 0.55710  0.06130  0.62790  Biso   1.000  C
  C94      1.0000 0.94290  0.56130  0.87210  Biso   1.000  C
  C95      1.0000 0.44290  0.93870  0.37210  Biso   1.000  C
  C96      1.0000 0.05710  0.43870  0.12790  Biso   1.000  C
  H65      1.0000 0.62120  0.09010  0.60760  Biso   1.000  H
  H66      1.0000 0.87880  0.59010  0.89240  Biso   1.000  H
  H67      1.0000 0.37880  0.90990  0.39240  Biso   1.000  H
  H68      1.0000 0.12120  0.40990  0.10760  Biso   1.000  H
  C97      1.0000 0.59450  0.98560  0.66680  Biso   1.000  C
  C98      1.0000 0.90550  0.48560  0.83320  Biso   1.000  C
  C99      1.0000 0.40550  0.01440  0.33320  Biso   1.000  C
  C100     1.0000 0.09450  0.51440  0.16680  Biso   1.000  C
  H69      1.0000 0.68510  0.96500  0.67360  Biso   1.000  H
  H70      1.0000 0.81490  0.46500  0.82640  Biso   1.000  H
  H71      1.0000 0.31490  0.03500  0.32640  Biso   1.000  H
  H72      1.0000 0.18510  0.53500  0.17360  Biso   1.000  H
  C101     1.0000 0.67250  0.86660  0.76502  Biso   1.000  C
  C102     1.0000 0.82750  0.36660  0.73498  Biso   1.000  C
  C103     1.0000 0.32750  0.13340  0.23498  Biso   1.000  C
  C104     1.0000 0.17250  0.63340  0.26502  Biso   1.000  C
  C105     1.0000 0.77130  0.78470  0.76595  Biso   1.000  C
  C106     1.0000 0.72870  0.28470  0.73405  Biso   1.000  C
  C107     1.0000 0.22870  0.21530  0.23405  Biso   1.000  C
  C108     1.0000 0.27130  0.71530  0.26595  Biso   1.000  C
  H73      1.0000 0.75810  0.71840  0.74530  Biso   1.000  H
  H74      1.0000 0.74190  0.21840  0.75470  Biso   1.000  H
  H75      1.0000 0.24190  0.28160  0.25470  Biso   1.000  H
  H76      1.0000 0.25810  0.78160  0.24530  Biso   1.000  H
  C109     1.0000 0.88930  0.79730  0.79650  Biso   1.000  C
  C110     1.0000 0.61070  0.29730  0.70350  Biso   1.000  C
  C111     1.0000 0.11070  0.20270  0.20350  Biso   1.000  C
  C112     1.0000 0.38930  0.70270  0.29650  Biso   1.000  C
  H77      1.0000 0.95740  0.74150  0.79550  Biso   1.000  H
  H78      1.0000 0.54260  0.24150  0.70450  Biso   1.000  H
  H79      1.0000 0.04260  0.25850  0.20450  Biso   1.000  H
  H80      1.0000 0.45740  0.75850  0.29550  Biso   1.000  H
  C113     1.0000 0.90830  0.89050  0.82820  Biso   1.000  C
  C114     1.0000 0.59170  0.39050  0.67180  Biso   1.000  C
  C115     1.0000 0.09170  0.10950  0.17180  Biso   1.000  C
  C116     1.0000 0.40830  0.60950  0.32820  Biso   1.000  C
  C117     1.0000 0.81120  0.97520  0.82660  Biso   1.000  C
  C118     1.0000 0.68880  0.47520  0.67340  Biso   1.000  C
  C119     1.0000 0.18880  0.02480  0.17340  Biso   1.000  C
  C120     1.0000 0.31120  0.52480  0.32660  Biso   1.000  C
  H81      1.0000 0.82400  0.04100  0.84760  Biso   1.000  H
  H82      1.0000 0.67600  0.54100  0.65240  Biso   1.000  H
  H83      1.0000 0.17600  0.95900  0.15240  Biso   1.000  H
  H84      1.0000 0.32400  0.45900  0.34760  Biso   1.000  H
  C121     1.0000 0.69620  0.96380  0.79470  Biso   1.000  C
  C122     1.0000 0.80380  0.46380  0.70530  Biso   1.000  C
  C123     1.0000 0.30380  0.03620  0.20530  Biso   1.000  C
  C124     1.0000 0.19620  0.53620  0.29470  Biso   1.000  C
  H85      1.0000 0.63210  0.02350  0.79300  Biso   1.000  H
  H86      1.0000 0.86790  0.52350  0.70700  Biso   1.000  H
  H87      1.0000 0.36790  0.97650  0.20700  Biso   1.000  H
  H88      1.0000 0.13210  0.47650  0.29300  Biso   1.000  H
  C125     1.0000 0.02820  0.89910  0.86460  Biso   1.000  C
  C126     1.0000 0.47180  0.39910  0.63540  Biso   1.000  C
  C127     1.0000 0.97180  0.10090  0.13540  Biso   1.000  C
  C128     1.0000 0.52820  0.60090  0.36460  Biso   1.000  C
  C129     1.0000 0.01940  0.93290  0.91350  Biso   1.000  C
  C130     1.0000 0.48060  0.43290  0.58650  Biso   1.000  C
  C131     1.0000 0.98060  0.06710  0.08650  Biso   1.000  C
  C132     1.0000 0.51940  0.56710  0.41350  Biso   1.000  C
  H89      1.0000 0.93580  0.95350  0.92390  Biso   1.000  H
  H90      1.0000 0.56420  0.45350  0.57610  Biso   1.000  H
  H91      1.0000 0.06420  0.04650  0.07610  Biso   1.000  H
  H92      1.0000 0.43580  0.54650  0.42390  Biso   1.000  H
  C133     1.0000 0.13030  0.93690  0.94730  Biso   1.000  C
  C134     1.0000 0.36970  0.43690  0.55270  Biso   1.000  C
  C135     1.0000 0.86970  0.06310  0.05270  Biso   1.000  C
  C136     1.0000 0.63030  0.56310  0.44730  Biso   1.000  C
  H93      1.0000 0.11950  0.95920  0.98080  Biso   1.000  H
  H94      1.0000 0.38050  0.45920  0.51920  Biso   1.000  H
  H95      1.0000 0.88050  0.04080  0.01920  Biso   1.000  H
  H96      1.0000 0.61950  0.54080  0.48080  Biso   1.000  H
  C137     1.0000 0.26180  0.87920  0.88880  Biso   1.000  C
  C138     1.0000 0.23820  0.37920  0.61120  Biso   1.000  C
  C139     1.0000 0.73820  0.12080  0.11120  Biso   1.000  C
  C140     1.0000 0.76180  0.62080  0.38880  Biso   1.000  C
  H97      1.0000 0.34700  0.86030  0.87960  Biso   1.000  H
  H98      1.0000 0.15300  0.36030  0.62040  Biso   1.000  H
  H99      1.0000 0.65300  0.13970  0.12040  Biso   1.000  H
  H100     1.0000 0.84700  0.63970  0.37960  Biso   1.000  H
  C141     1.0000 0.15410  0.87160  0.85260  Biso   1.000  C
  C142     1.0000 0.34590  0.37160  0.64740  Biso   1.000  C
  C143     1.0000 0.84590  0.12840  0.14740  Biso   1.000  C
  C144     1.0000 0.65410  0.62840  0.35260  Biso   1.000  C
  H101     1.0000 0.16670  0.84760  0.81950  Biso   1.000  H
  H102     1.0000 0.33330  0.34760  0.68050  Biso   1.000  H
  H103     1.0000 0.83330  0.15240  0.18050  Biso   1.000  H
  H104     1.0000 0.66670  0.65240  0.31950  Biso   1.000  H
  N1       1.0000 0.59750  0.22900  0.96467  Biso   1.000  N
  N2       1.0000 0.90250  0.72900  0.53533  Biso   1.000  N
  N3       1.0000 0.40250  0.77100  0.03533  Biso   1.000  N
  N4       1.0000 0.09750  0.27100  0.46467  Biso   1.000  N
  N5       1.0000 0.25100  0.91200  0.93645  Biso   1.000  N
  N6       1.0000 0.24900  0.41200  0.56355  Biso   1.000  N
  N7       1.0000 0.74900  0.08800  0.06355  Biso   1.000  N
  N8       1.0000 0.75100  0.58800  0.43645  Biso   1.000  N
  C145     1.0000 0.47780  0.19330  0.47790  Biso   1.000  C
  C146     1.0000 0.02220  0.69330  0.02210  Biso   1.000  C
  C147     1.0000 0.52220  0.80670  0.52210  Biso   1.000  C
  C148     1.0000 0.97780  0.30670  0.97790  Biso   1.000  C
  C149     1.0000 0.57940  0.13710  0.48550  Biso   1.000  C
  C150     1.0000 0.92060  0.63710  0.01450  Biso   1.000  C
  C151     1.0000 0.42060  0.86290  0.51450  Biso   1.000  C
  C152     1.0000 0.07940  0.36290  0.98550  Biso   1.000  C
  N9       1.0000 0.69310  0.07400  0.49500  Biso   1.000  N
  N10      1.0000 0.80690  0.57400  0.00500  Biso   1.000  N
  N11      1.0000 0.30690  0.92600  0.50500  Biso   1.000  N
  N12      1.0000 0.19310  0.42600  0.99500  Biso   1.000  N
