data_image0
_cell_length_a       10.8883
_cell_length_b       13.0342
_cell_length_c       13.8597
_cell_angle_alpha    77.59
_cell_angle_beta     85.085
_cell_angle_gamma    74.179

_symmetry_space_group_name_H-M    "P 1"
_symmetry_int_tables_number       1

loop_
  _symmetry_equiv_pos_as_xyz
  'x, y, z'

loop_
  _atom_site_label
  _atom_site_occupancy
  _atom_site_fract_x
  _atom_site_fract_y
  _atom_site_fract_z
  _atom_site_thermal_displace_type
  _atom_site_B_iso_or_equiv
  _atom_site_type_symbol
  I1       1.0000 0.89672  0.24663  0.65844  Biso   1.000  I
  I2       1.0000 0.10328  0.75337  0.34156  Biso   1.000  I
  I3       1.0000 0.57190  0.25653  0.86795  Biso   1.000  I
  I4       1.0000 0.42810  0.74347  0.13205  Biso   1.000  I
  Cu1      1.0000 0.66717  0.22238  0.69485  Biso   1.000  Cu
  Cu2      1.0000 0.33283  0.77762  0.30515  Biso   1.000  Cu
  Cu3      1.0000 0.80867  0.27036  0.83874  Biso   1.000  Cu
  Cu4      1.0000 0.19133  0.72964  0.16126  Biso   1.000  Cu
  N1       1.0000 0.92200  0.16835  0.94988  Biso   1.000  N
  N2       1.0000 0.07800  0.83165  0.05012  Biso   1.000  N
  N3       1.0000 0.87470  0.14674  0.03996  Biso   1.000  N
  N4       1.0000 0.12530  0.85326  0.96004  Biso   1.000  N
  N5       1.0000 0.97290  0.09774  0.10137  Biso   1.000  N
  N6       1.0000 0.02710  0.90226  0.89863  Biso   1.000  N
  N7       1.0000 0.06400  0.19281  0.24074  Biso   1.000  N
  N8       1.0000 0.93600  0.80719  0.75926  Biso   1.000  N
  N9       1.0000 0.54160  0.31749  0.58555  Biso   1.000  N
  N10      1.0000 0.45840  0.68251  0.41445  Biso   1.000  N
  N11      1.0000 0.57690  0.35838  0.49552  Biso   1.000  N
  N12      1.0000 0.42310  0.64162  0.50448  Biso   1.000  N
  N13      1.0000 0.47020  0.41007  0.44357  Biso   1.000  N
  N14      1.0000 0.52980  0.58993  0.55643  Biso   1.000  N
  N15      1.0000 0.52440  0.27110  0.31455  Biso   1.000  N
  N16      1.0000 0.47560  0.72890  0.68545  Biso   1.000  N
  N17      1.0000 0.18180  0.57640  0.14767  Biso   1.000  N
  N18      1.0000 0.81820  0.42360  0.85233  Biso   1.000  N
  N19      1.0000 0.18360  0.49800  0.22514  Biso   1.000  N
  N20      1.0000 0.81640  0.50200  0.77486  Biso   1.000  N
  N21      1.0000 0.18430  0.40674  0.19362  Biso   1.000  N
  N22      1.0000 0.81570  0.59326  0.80638  Biso   1.000  N
  N23      1.0000 0.47150  0.03490  0.33051  Biso   1.000  N
  N24      1.0000 0.52850  0.96510  0.66949  Biso   1.000  N
  N25      1.0000 0.45910  0.95620  0.28499  Biso   1.000  N
  N26      1.0000 0.54090  0.04380  0.71501  Biso   1.000  N
  N27      1.0000 0.35650  0.92593  0.32272  Biso   1.000  N
  N28      1.0000 0.64350  0.07407  0.67728  Biso   1.000  N
  C1       1.0000 0.18090  0.53540  0.06330  Biso   1.000  C
  C2       1.0000 0.81910  0.46460  0.93670  Biso   1.000  C
  C3       1.0000 0.18210  0.42640  0.09260  Biso   1.000  C
  C4       1.0000 0.81790  0.57360  0.90740  Biso   1.000  C
  C5       1.0000 0.18380  0.35920  0.02540  Biso   1.000  C
  C6       1.0000 0.81620  0.64080  0.97460  Biso   1.000  C
  H1       1.0000 0.18390  0.28480  0.04640  Biso   1.000  H
  H2       1.0000 0.81610  0.71520  0.95360  Biso   1.000  H
  C7       1.0000 0.18540  0.40820  0.92780  Biso   1.000  C
  C8       1.0000 0.81460  0.59180  0.07220  Biso   1.000  C
  H3       1.0000 0.18600  0.36660  0.87920  Biso   1.000  H
  H4       1.0000 0.81400  0.63340  0.12080  Biso   1.000  H
  C9       1.0000 0.18620  0.51880  0.89650  Biso   1.000  C
  C10      1.0000 0.81380  0.48120  0.10350  Biso   1.000  C
  H5       1.0000 0.18880  0.54870  0.82780  Biso   1.000  H
  H6       1.0000 0.81120  0.45130  0.17220  Biso   1.000  H
  C11      1.0000 0.18340  0.58370  0.96270  Biso   1.000  C
  C12      1.0000 0.81660  0.41630  0.03730  Biso   1.000  C
  H7       1.0000 0.18320  0.65810  0.94150  Biso   1.000  H
  H8       1.0000 0.81680  0.34190  0.05850  Biso   1.000  H
  C13      1.0000 0.19970  0.30360  0.26400  Biso   1.000  C
  C14      1.0000 0.80030  0.69640  0.73600  Biso   1.000  C
  H9       1.0000 0.23290  0.31010  0.32610  Biso   1.000  H
  H10      1.0000 0.76710  0.68990  0.67390  Biso   1.000  H
  H11      1.0000 0.26360  0.24610  0.23680  Biso   1.000  H
  H12      1.0000 0.73640  0.75390  0.76320  Biso   1.000  H
  C15      1.0000 0.07650  0.27010  0.28690  Biso   1.000  C
  C16      1.0000 0.92350  0.72990  0.71310  Biso   1.000  C
  C17      1.0000 0.98480  0.31570  0.35190  Biso   1.000  C
  C18      1.0000 0.01520  0.68430  0.64810  Biso   1.000  C
  H13      1.0000 0.99810  0.36940  0.38360  Biso   1.000  H
  H14      1.0000 0.00190  0.63060  0.61640  Biso   1.000  H
  C19      1.0000 0.87360  0.28200  0.37010  Biso   1.000  C
  C20      1.0000 0.12640  0.71800  0.62990  Biso   1.000  C
  H15      1.0000 0.80900  0.31190  0.41430  Biso   1.000  H
  H16      1.0000 0.19100  0.68810  0.58570  Biso   1.000  H
  C21      1.0000 0.85920  0.20350  0.32200  Biso   1.000  C
  C22      1.0000 0.14080  0.79650  0.67800  Biso   1.000  C
  H17      1.0000 0.78360  0.17910  0.33220  Biso   1.000  H
  H18      1.0000 0.21640  0.82090  0.66780  Biso   1.000  H
  C23      1.0000 0.95620  0.16070  0.25890  Biso   1.000  C
  C24      1.0000 0.04380  0.83930  0.74110  Biso   1.000  C
  C25      1.0000 0.94720  0.07150  0.20740  Biso   1.000  C
  C26      1.0000 0.05280  0.92850  0.79260  Biso   1.000  C
  H19      1.0000 0.00910  0.00270  0.23620  Biso   1.000  H
  H20      1.0000 0.99090  0.99730  0.76380  Biso   1.000  H
  H21      1.0000 0.86050  0.05990  0.21920  Biso   1.000  H
  H22      1.0000 0.13950  0.94010  0.78080  Biso   1.000  H
  C27      1.0000 0.08700  0.08740  0.05040  Biso   1.000  C
  C28      1.0000 0.91300  0.91260  0.94960  Biso   1.000  C
  C29      1.0000 0.21370  0.04300  0.07910  Biso   1.000  C
  C30      1.0000 0.78630  0.95700  0.92090  Biso   1.000  C
  H23      1.0000 0.23530  0.01030  0.14570  Biso   1.000  H
  H24      1.0000 0.76470  0.98970  0.85430  Biso   1.000  H
  C31      1.0000 0.30460  0.04960  0.00480  Biso   1.000  C
  C32      1.0000 0.69540  0.95040  0.99520  Biso   1.000  C
  H25      1.0000 0.39220  0.02140  0.02070  Biso   1.000  H
  H26      1.0000 0.60780  0.97860  0.97930  Biso   1.000  H
  C33      1.0000 0.27290  0.09670  0.90550  Biso   1.000  C
  C34      1.0000 0.72710  0.90330  0.09450  Biso   1.000  C
  H27      1.0000 0.33960  0.09980  0.85690  Biso   1.000  H
  H28      1.0000 0.66040  0.90020  0.14310  Biso   1.000  H
  C35      1.0000 0.14830  0.13830  0.87740  Biso   1.000  C
  C36      1.0000 0.85170  0.86170  0.12260  Biso   1.000  C
  H29      1.0000 0.12700  0.16880  0.81030  Biso   1.000  H
  H30      1.0000 0.87300  0.83120  0.18970  Biso   1.000  H
  C37      1.0000 0.05350  0.13340  0.95300  Biso   1.000  C
  C38      1.0000 0.94650  0.86660  0.04700  Biso   1.000  C
  C39      1.0000 0.41040  0.34180  0.59190  Biso   1.000  C
  C40      1.0000 0.58960  0.65820  0.40810  Biso   1.000  C
  C41      1.0000 0.36310  0.40130  0.50010  Biso   1.000  C
  C42      1.0000 0.63690  0.59870  0.49990  Biso   1.000  C
  C43      1.0000 0.23200  0.44110  0.48210  Biso   1.000  C
  C44      1.0000 0.76800  0.55890  0.51790  Biso   1.000  C
  H31      1.0000 0.20040  0.48220  0.41980  Biso   1.000  H
  H32      1.0000 0.79960  0.51780  0.58020  Biso   1.000  H
  C45      1.0000 0.15220  0.41650  0.56140  Biso   1.000  C
  C46      1.0000 0.84780  0.58350  0.43860  Biso   1.000  C
  H33      1.0000 0.06250  0.44030  0.55300  Biso   1.000  H
  H34      1.0000 0.93750  0.55970  0.44700  Biso   1.000  H
  C47      1.0000 0.19920  0.35690  0.65470  Biso   1.000  C
  C48      1.0000 0.80080  0.64310  0.34530  Biso   1.000  C
  H35      1.0000 0.13990  0.34330  0.70710  Biso   1.000  H
  H36      1.0000 0.86010  0.65670  0.29290  Biso   1.000  H
  C49      1.0000 0.32670  0.31850  0.67180  Biso   1.000  C
  C50      1.0000 0.67330  0.68150  0.32820  Biso   1.000  C
  H37      1.0000 0.35750  0.27800  0.73450  Biso   1.000  H
  H38      1.0000 0.64250  0.72200  0.26550  Biso   1.000  H
  C51      1.0000 0.48100  0.45750  0.33910  Biso   1.000  C
  C52      1.0000 0.51900  0.54250  0.66090  Biso   1.000  C
  H39      1.0000 0.55490  0.48960  0.32840  Biso   1.000  H
  H40      1.0000 0.44510  0.51040  0.67160  Biso   1.000  H
  H41      1.0000 0.40330  0.51720  0.32030  Biso   1.000  H
  H42      1.0000 0.59670  0.48280  0.67970  Biso   1.000  H
  C53      1.0000 0.49760  0.37640  0.27270  Biso   1.000  C
  C54      1.0000 0.50240  0.62360  0.72730  Biso   1.000  C
  C55      1.0000 0.49020  0.41530  0.17090  Biso   1.000  C
  C56      1.0000 0.50980  0.58470  0.82910  Biso   1.000  C
  H43      1.0000 0.47150  0.49120  0.14400  Biso   1.000  H
  H44      1.0000 0.52850  0.50880  0.85600  Biso   1.000  H
  C57      1.0000 0.51080  0.34040  0.11040  Biso   1.000  C
  C58      1.0000 0.48920  0.65960  0.88960  Biso   1.000  C
  H45      1.0000 0.50470  0.36400  0.04080  Biso   1.000  H
  H46      1.0000 0.49530  0.63600  0.95920  Biso   1.000  H
  C59      1.0000 0.54040  0.23060  0.15220  Biso   1.000  C
  C60      1.0000 0.45960  0.76940  0.84780  Biso   1.000  C
  H47      1.0000 0.55660  0.17780  0.11180  Biso   1.000  H
  H48      1.0000 0.44340  0.82220  0.88820  Biso   1.000  H
  C61      1.0000 0.54620  0.19910  0.25370  Biso   1.000  C
  C62      1.0000 0.45380  0.80090  0.74630  Biso   1.000  C
  C63      1.0000 0.58150  0.08050  0.30510  Biso   1.000  C
  C64      1.0000 0.41850  0.91950  0.69490  Biso   1.000  C
  H49      1.0000 0.64130  0.03770  0.26150  Biso   1.000  H
  H50      1.0000 0.35870  0.96230  0.73850  Biso   1.000  H
  H51      1.0000 0.62660  0.07310  0.36630  Biso   1.000  H
  H52      1.0000 0.37340  0.92690  0.63370  Biso   1.000  H
  C65      1.0000 0.37580  0.05580  0.39950  Biso   1.000  C
  C66      1.0000 0.62420  0.94420  0.60050  Biso   1.000  C
  C67      1.0000 0.34610  0.12720  0.46570  Biso   1.000  C
  C68      1.0000 0.65390  0.87280  0.53430  Biso   1.000  C
  H53      1.0000 0.39850  0.17320  0.47080  Biso   1.000  H
  H54      1.0000 0.60150  0.82680  0.52920  Biso   1.000  H
  C69      1.0000 0.23700  0.12640  0.52260  Biso   1.000  C
  C70      1.0000 0.76300  0.87360  0.47740  Biso   1.000  C
  H55      1.0000 0.21150  0.17510  0.56700  Biso   1.000  H
  H56      1.0000 0.78850  0.82490  0.43300  Biso   1.000  H
  C71      1.0000 0.16090  0.05530  0.51720  Biso   1.000  C
  C72      1.0000 0.83910  0.94470  0.48280  Biso   1.000  C
  H57      1.0000 0.08650  0.05720  0.55870  Biso   1.000  H
  H58      1.0000 0.91350  0.94280  0.44130  Biso   1.000  H
  C73      1.0000 0.19180  0.98400  0.45400  Biso   1.000  C
  C74      1.0000 0.80820  0.01600  0.54600  Biso   1.000  C
  H59      1.0000 0.14120  0.93580  0.45130  Biso   1.000  H
  H60      1.0000 0.85880  0.06420  0.54870  Biso   1.000  H
  C75      1.0000 0.30170  0.98550  0.39340  Biso   1.000  C
  C76      1.0000 0.69830  0.01450  0.60660  Biso   1.000  C
