data_image0
_cell_length_a       15.835
_cell_length_b       15.835
_cell_length_c       15.037
_cell_angle_alpha    90
_cell_angle_beta     90
_cell_angle_gamma    90

_symmetry_space_group_name_H-M    "P 1"
_symmetry_int_tables_number       1

loop_
  _symmetry_equiv_pos_as_xyz
  'x, y, z'

loop_
  _atom_site_label
  _atom_site_occupancy
  _atom_site_fract_x
  _atom_site_fract_y
  _atom_site_fract_z
  _atom_site_thermal_displace_type
  _atom_site_B_iso_or_equiv
  _atom_site_type_symbol
  Pt1      1.0000 0.00000  0.00000  0.00000  Biso   1.000  Pt
  Pt2      1.0000 0.75000  0.25000  0.25000  Biso   1.000  Pt
  Pt3      1.0000 0.50000  0.00000  0.50000  Biso   1.000  Pt
  Pt4      1.0000 0.75000  0.75000  0.75000  Biso   1.000  Pt
  Pt5      1.0000 0.50000  0.50000  0.50000  Biso   1.000  Pt
  Pt6      1.0000 0.25000  0.75000  0.75000  Biso   1.000  Pt
  Pt7      1.0000 0.00000  0.50000  0.00000  Biso   1.000  Pt
  Pt8      1.0000 0.25000  0.25000  0.25000  Biso   1.000  Pt
  Cu1      1.0000 0.79217  0.05020  0.12121  Biso   1.000  Cu
  Cu2      1.0000 0.69980  0.04217  0.37121  Biso   1.000  Cu
  Cu3      1.0000 0.70783  0.94980  0.62121  Biso   1.000  Cu
  Cu4      1.0000 0.80020  0.95783  0.87121  Biso   1.000  Cu
  Cu5      1.0000 0.29217  0.55020  0.62121  Biso   1.000  Cu
  Cu6      1.0000 0.19980  0.54217  0.87121  Biso   1.000  Cu
  Cu7      1.0000 0.20783  0.44980  0.12121  Biso   1.000  Cu
  Cu8      1.0000 0.30020  0.45783  0.37121  Biso   1.000  Cu
  Cu9      1.0000 0.20783  0.94980  0.87879  Biso   1.000  Cu
  Cu10     1.0000 0.80020  0.45783  0.12879  Biso   1.000  Cu
  Cu11     1.0000 0.29217  0.05020  0.37879  Biso   1.000  Cu
  Cu12     1.0000 0.69980  0.54217  0.62879  Biso   1.000  Cu
  Cu13     1.0000 0.70783  0.44980  0.37879  Biso   1.000  Cu
  Cu14     1.0000 0.30020  0.95783  0.62879  Biso   1.000  Cu
  Cu15     1.0000 0.79217  0.55020  0.87879  Biso   1.000  Cu
  Cu16     1.0000 0.19980  0.04217  0.12879  Biso   1.000  Cu
  Cl1      1.0000 0.23660  0.02440  0.75130  Biso   1.000  Cl
  Cl2      1.0000 0.72560  0.48660  0.00130  Biso   1.000  Cl
  Cl3      1.0000 0.26340  0.97560  0.25130  Biso   1.000  Cl
  Cl4      1.0000 0.77440  0.51340  0.50130  Biso   1.000  Cl
  Cl5      1.0000 0.73660  0.52440  0.25130  Biso   1.000  Cl
  Cl6      1.0000 0.22560  0.98660  0.50130  Biso   1.000  Cl
  Cl7      1.0000 0.76340  0.47560  0.75130  Biso   1.000  Cl
  Cl8      1.0000 0.27440  0.01340  0.00130  Biso   1.000  Cl
  Cl9      1.0000 0.76340  0.97560  0.24870  Biso   1.000  Cl
  Cl10     1.0000 0.77440  0.01340  0.49870  Biso   1.000  Cl
  Cl11     1.0000 0.73660  0.02440  0.74870  Biso   1.000  Cl
  Cl12     1.0000 0.72560  0.98660  0.99870  Biso   1.000  Cl
  Cl13     1.0000 0.26340  0.47560  0.74870  Biso   1.000  Cl
  Cl14     1.0000 0.27440  0.51340  0.99870  Biso   1.000  Cl
  Cl15     1.0000 0.23660  0.52440  0.24870  Biso   1.000  Cl
  Cl16     1.0000 0.22560  0.48660  0.49870  Biso   1.000  Cl
  S1       1.0000 0.93490  0.08410  0.10550  Biso   1.000  S
  S2       1.0000 0.66590  0.18490  0.35550  Biso   1.000  S
  S3       1.0000 0.56510  0.91590  0.60550  Biso   1.000  S
  S4       1.0000 0.83410  0.81510  0.85550  Biso   1.000  S
  S5       1.0000 0.43490  0.58410  0.60550  Biso   1.000  S
  S6       1.0000 0.16590  0.68490  0.85550  Biso   1.000  S
  S7       1.0000 0.06510  0.41590  0.10550  Biso   1.000  S
  S8       1.0000 0.33410  0.31510  0.35550  Biso   1.000  S
  S9       1.0000 0.06510  0.91590  0.89450  Biso   1.000  S
  S10      1.0000 0.83410  0.31510  0.14450  Biso   1.000  S
  S11      1.0000 0.43490  0.08410  0.39450  Biso   1.000  S
  S12      1.0000 0.66590  0.68490  0.64450  Biso   1.000  S
  S13      1.0000 0.56510  0.41590  0.39450  Biso   1.000  S
  S14      1.0000 0.33410  0.81510  0.64450  Biso   1.000  S
  S15      1.0000 0.93490  0.58410  0.89450  Biso   1.000  S
  S16      1.0000 0.16590  0.18490  0.14450  Biso   1.000  S
  S17      1.0000 0.06690  0.96590  0.13160  Biso   1.000  S
  S18      1.0000 0.78410  0.31690  0.38160  Biso   1.000  S
  S19      1.0000 0.43310  0.03410  0.63160  Biso   1.000  S
  S20      1.0000 0.71590  0.68310  0.88160  Biso   1.000  S
  S21      1.0000 0.56690  0.46590  0.63160  Biso   1.000  S
  S22      1.0000 0.28410  0.81690  0.88160  Biso   1.000  S
  S23      1.0000 0.93310  0.53410  0.13160  Biso   1.000  S
  S24      1.0000 0.21590  0.18310  0.38160  Biso   1.000  S
  S25      1.0000 0.93310  0.03410  0.86840  Biso   1.000  S
  S26      1.0000 0.71590  0.18310  0.11840  Biso   1.000  S
  S27      1.0000 0.56690  0.96590  0.36840  Biso   1.000  S
  S28      1.0000 0.78410  0.81690  0.61840  Biso   1.000  S
  S29      1.0000 0.43310  0.53410  0.36840  Biso   1.000  S
  S30      1.0000 0.21590  0.68310  0.61840  Biso   1.000  S
  S31      1.0000 0.06690  0.46590  0.86840  Biso   1.000  S
  S32      1.0000 0.28410  0.31690  0.11840  Biso   1.000  S
  N1       1.0000 0.99310  0.04520  0.27190  Biso   1.000  N
  N2       1.0000 0.70480  0.24310  0.52190  Biso   1.000  N
  N3       1.0000 0.50690  0.95480  0.77190  Biso   1.000  N
  N4       1.0000 0.79520  0.75690  0.02190  Biso   1.000  N
  N5       1.0000 0.49310  0.54520  0.77190  Biso   1.000  N
  N6       1.0000 0.20480  0.74310  0.02190  Biso   1.000  N
  N7       1.0000 0.00690  0.45480  0.27190  Biso   1.000  N
  N8       1.0000 0.29520  0.25690  0.52190  Biso   1.000  N
  N9       1.0000 0.00690  0.95480  0.72810  Biso   1.000  N
  N10      1.0000 0.79520  0.25690  0.97810  Biso   1.000  N
  N11      1.0000 0.49310  0.04520  0.22810  Biso   1.000  N
  N12      1.0000 0.70480  0.74310  0.47810  Biso   1.000  N
  N13      1.0000 0.50690  0.45480  0.22810  Biso   1.000  N
  N14      1.0000 0.29520  0.75690  0.47810  Biso   1.000  N
  N15      1.0000 0.99310  0.54520  0.72810  Biso   1.000  N
  N16      1.0000 0.20480  0.24310  0.97810  Biso   1.000  N
  C1       1.0000 0.99700  0.03360  0.18460  Biso   1.000  C
  C2       1.0000 0.71640  0.24700  0.43460  Biso   1.000  C
  C3       1.0000 0.50300  0.96640  0.68460  Biso   1.000  C
  C4       1.0000 0.78360  0.75300  0.93460  Biso   1.000  C
  C5       1.0000 0.49700  0.53360  0.68460  Biso   1.000  C
  C6       1.0000 0.21640  0.74700  0.93460  Biso   1.000  C
  C7       1.0000 0.00300  0.46640  0.18460  Biso   1.000  C
  C8       1.0000 0.28360  0.25300  0.43460  Biso   1.000  C
  C9       1.0000 0.00300  0.96640  0.81540  Biso   1.000  C
  C10      1.0000 0.78360  0.25300  0.06540  Biso   1.000  C
  C11      1.0000 0.49700  0.03360  0.31540  Biso   1.000  C
  C12      1.0000 0.71640  0.74700  0.56540  Biso   1.000  C
  C13      1.0000 0.50300  0.46640  0.31540  Biso   1.000  C
  C14      1.0000 0.28360  0.75300  0.56540  Biso   1.000  C
  C15      1.0000 0.99700  0.53360  0.81540  Biso   1.000  C
  C16      1.0000 0.21640  0.24700  0.06540  Biso   1.000  C
  C17      1.0000 0.04430  0.99300  0.33240  Biso   1.000  C
  C18      1.0000 0.75700  0.29430  0.58240  Biso   1.000  C
  C19      1.0000 0.45570  0.00700  0.83240  Biso   1.000  C
  C20      1.0000 0.74300  0.70570  0.08240  Biso   1.000  C
  C21      1.0000 0.54430  0.49300  0.83240  Biso   1.000  C
  C22      1.0000 0.25700  0.79430  0.08240  Biso   1.000  C
  C23      1.0000 0.95570  0.50700  0.33240  Biso   1.000  C
  C24      1.0000 0.24300  0.20570  0.58240  Biso   1.000  C
  C25      1.0000 0.95570  0.00700  0.66760  Biso   1.000  C
  C26      1.0000 0.74300  0.20570  0.91760  Biso   1.000  C
  C27      1.0000 0.54430  0.99300  0.16760  Biso   1.000  C
  C28      1.0000 0.75700  0.79430  0.41760  Biso   1.000  C
  C29      1.0000 0.45570  0.50700  0.16760  Biso   1.000  C
  C30      1.0000 0.24300  0.70570  0.41760  Biso   1.000  C
  C31      1.0000 0.04430  0.49300  0.66760  Biso   1.000  C
  C32      1.0000 0.25700  0.29430  0.91760  Biso   1.000  C
  C33      1.0000 0.98830  0.91560  0.36400  Biso   1.000  C
  C34      1.0000 0.83440  0.23830  0.61400  Biso   1.000  C
  C35      1.0000 0.51170  0.08440  0.86400  Biso   1.000  C
  C36      1.0000 0.66560  0.76170  0.11400  Biso   1.000  C
  C37      1.0000 0.48830  0.41560  0.86400  Biso   1.000  C
  C38      1.0000 0.33440  0.73830  0.11400  Biso   1.000  C
  C39      1.0000 0.01170  0.58440  0.36400  Biso   1.000  C
  C40      1.0000 0.16560  0.26170  0.61400  Biso   1.000  C
  C41      1.0000 0.01170  0.08440  0.63600  Biso   1.000  C
  C42      1.0000 0.66560  0.26170  0.88600  Biso   1.000  C
  C43      1.0000 0.48830  0.91560  0.13600  Biso   1.000  C
  C44      1.0000 0.83440  0.73830  0.38600  Biso   1.000  C
  C45      1.0000 0.51170  0.58440  0.13600  Biso   1.000  C
  C46      1.0000 0.16560  0.76170  0.38600  Biso   1.000  C
  C47      1.0000 0.98830  0.41560  0.63600  Biso   1.000  C
  C48      1.0000 0.33440  0.23830  0.88600  Biso   1.000  C
  C49      1.0000 0.93080  0.10620  0.31050  Biso   1.000  C
  C50      1.0000 0.64380  0.18080  0.56050  Biso   1.000  C
  C51      1.0000 0.56920  0.89380  0.81050  Biso   1.000  C
  C52      1.0000 0.85620  0.81920  0.06050  Biso   1.000  C
  C53      1.0000 0.43080  0.60620  0.81050  Biso   1.000  C
  C54      1.0000 0.14380  0.68080  0.06050  Biso   1.000  C
  C55      1.0000 0.06920  0.39380  0.31050  Biso   1.000  C
  C56      1.0000 0.35620  0.31920  0.56050  Biso   1.000  C
  C57      1.0000 0.06920  0.89380  0.68950  Biso   1.000  C
  C58      1.0000 0.85620  0.31920  0.93950  Biso   1.000  C
  C59      1.0000 0.43080  0.10620  0.18950  Biso   1.000  C
  C60      1.0000 0.64380  0.68080  0.43950  Biso   1.000  C
  C61      1.0000 0.56920  0.39380  0.18950  Biso   1.000  C
  C62      1.0000 0.35620  0.81920  0.43950  Biso   1.000  C
  C63      1.0000 0.93080  0.60620  0.68950  Biso   1.000  C
  C64      1.0000 0.14380  0.18080  0.93950  Biso   1.000  C
  C65      1.0000 0.95000  0.13700  0.40400  Biso   1.000  C
  C66      1.0000 0.61300  0.20000  0.65400  Biso   1.000  C
  C67      1.0000 0.55000  0.86300  0.90400  Biso   1.000  C
  C68      1.0000 0.88700  0.80000  0.15400  Biso   1.000  C
  C69      1.0000 0.45000  0.63700  0.90400  Biso   1.000  C
  C70      1.0000 0.11300  0.70000  0.15400  Biso   1.000  C
  C71      1.0000 0.05000  0.36300  0.40400  Biso   1.000  C
  C72      1.0000 0.38700  0.30000  0.65400  Biso   1.000  C
  C73      1.0000 0.05000  0.86300  0.59600  Biso   1.000  C
  C74      1.0000 0.88700  0.30000  0.84600  Biso   1.000  C
  C75      1.0000 0.45000  0.13700  0.09600  Biso   1.000  C
  C76      1.0000 0.61300  0.70000  0.34600  Biso   1.000  C
  C77      1.0000 0.55000  0.36300  0.09600  Biso   1.000  C
  C78      1.0000 0.38700  0.80000  0.34600  Biso   1.000  C
  C79      1.0000 0.95000  0.63700  0.59600  Biso   1.000  C
  C80      1.0000 0.11300  0.20000  0.84600  Biso   1.000  C
  C81      1.0000 0.97800  0.18200  0.33800  Biso   1.000  C
  C82      1.0000 0.56800  0.22800  0.58800  Biso   1.000  C
  C83      1.0000 0.52200  0.81800  0.83800  Biso   1.000  C
  C84      1.0000 0.93200  0.77200  0.08800  Biso   1.000  C
  C85      1.0000 0.47800  0.68200  0.83800  Biso   1.000  C
  C86      1.0000 0.06800  0.72800  0.08800  Biso   1.000  C
  C87      1.0000 0.02200  0.31800  0.33800  Biso   1.000  C
  C88      1.0000 0.43200  0.27200  0.58800  Biso   1.000  C
  C89      1.0000 0.02200  0.81800  0.66200  Biso   1.000  C
  C90      1.0000 0.93200  0.27200  0.91200  Biso   1.000  C
  C91      1.0000 0.47800  0.18200  0.16200  Biso   1.000  C
  C92      1.0000 0.56800  0.72800  0.41200  Biso   1.000  C
  C93      1.0000 0.52200  0.31800  0.16200  Biso   1.000  C
  C94      1.0000 0.43200  0.77200  0.41200  Biso   1.000  C
  C95      1.0000 0.97800  0.68200  0.66200  Biso   1.000  C
  C96      1.0000 0.06800  0.22800  0.91200  Biso   1.000  C
