data_image0
_cell_length_a       15.967
_cell_length_b       15.967
_cell_length_c       15.348
_cell_angle_alpha    90
_cell_angle_beta     90
_cell_angle_gamma    90

_symmetry_space_group_name_H-M    "P 1"
_symmetry_int_tables_number       1

loop_
  _symmetry_equiv_pos_as_xyz
  'x, y, z'

loop_
  _atom_site_label
  _atom_site_occupancy
  _atom_site_fract_x
  _atom_site_fract_y
  _atom_site_fract_z
  _atom_site_thermal_displace_type
  _atom_site_B_iso_or_equiv
  _atom_site_type_symbol
  Pt1      1.0000 0.00000  0.00000  0.00000  Biso   1.000  Pt
  Pt2      1.0000 0.75000  0.25000  0.25000  Biso   1.000  Pt
  Pt3      1.0000 0.50000  0.00000  0.50000  Biso   1.000  Pt
  Pt4      1.0000 0.75000  0.75000  0.75000  Biso   1.000  Pt
  Pt5      1.0000 0.50000  0.50000  0.50000  Biso   1.000  Pt
  Pt6      1.0000 0.25000  0.75000  0.75000  Biso   1.000  Pt
  Pt7      1.0000 0.00000  0.50000  0.00000  Biso   1.000  Pt
  Pt8      1.0000 0.25000  0.25000  0.25000  Biso   1.000  Pt
  Br1      1.0000 0.23285  0.96890  0.25020  Biso   1.000  Br
  Br2      1.0000 0.78110  0.48285  0.50020  Biso   1.000  Br
  Br3      1.0000 0.26715  0.03110  0.75020  Biso   1.000  Br
  Br4      1.0000 0.71890  0.51715  0.00020  Biso   1.000  Br
  Br5      1.0000 0.73285  0.46890  0.75020  Biso   1.000  Br
  Br6      1.0000 0.28110  0.98285  0.00020  Biso   1.000  Br
  Br7      1.0000 0.76715  0.53110  0.25020  Biso   1.000  Br
  Br8      1.0000 0.21890  0.01715  0.50020  Biso   1.000  Br
  Br9      1.0000 0.76715  0.03110  0.74980  Biso   1.000  Br
  Br10     1.0000 0.71890  0.01715  0.99980  Biso   1.000  Br
  Br11     1.0000 0.73285  0.96890  0.24980  Biso   1.000  Br
  Br12     1.0000 0.78110  0.98285  0.49980  Biso   1.000  Br
  Br13     1.0000 0.26715  0.53110  0.24980  Biso   1.000  Br
  Br14     1.0000 0.21890  0.51715  0.49980  Biso   1.000  Br
  Br15     1.0000 0.23285  0.46890  0.74980  Biso   1.000  Br
  Br16     1.0000 0.28110  0.48285  0.99980  Biso   1.000  Br
  Cu1      1.0000 0.20619  0.05168  0.12120  Biso   1.000  Cu
  Cu2      1.0000 0.69832  0.45619  0.37120  Biso   1.000  Cu
  Cu3      1.0000 0.29381  0.94832  0.62120  Biso   1.000  Cu
  Cu4      1.0000 0.80168  0.54381  0.87120  Biso   1.000  Cu
  Cu5      1.0000 0.70619  0.55168  0.62120  Biso   1.000  Cu
  Cu6      1.0000 0.19832  0.95619  0.87120  Biso   1.000  Cu
  Cu7      1.0000 0.79381  0.44832  0.12120  Biso   1.000  Cu
  Cu8      1.0000 0.30168  0.04381  0.37120  Biso   1.000  Cu
  Cu9      1.0000 0.79381  0.94832  0.87880  Biso   1.000  Cu
  Cu10     1.0000 0.80168  0.04381  0.12880  Biso   1.000  Cu
  Cu11     1.0000 0.70619  0.05168  0.37880  Biso   1.000  Cu
  Cu12     1.0000 0.69832  0.95619  0.62880  Biso   1.000  Cu
  Cu13     1.0000 0.29381  0.44832  0.37880  Biso   1.000  Cu
  Cu14     1.0000 0.30168  0.54381  0.62880  Biso   1.000  Cu
  Cu15     1.0000 0.20619  0.55168  0.87880  Biso   1.000  Cu
  Cu16     1.0000 0.19832  0.45619  0.12880  Biso   1.000  Cu
  S1       1.0000 0.06420  0.08400  0.10310  Biso   1.000  S
  S2       1.0000 0.66600  0.31420  0.35310  Biso   1.000  S
  S3       1.0000 0.43580  0.91600  0.60310  Biso   1.000  S
  S4       1.0000 0.83400  0.68580  0.85310  Biso   1.000  S
  S5       1.0000 0.56420  0.58400  0.60310  Biso   1.000  S
  S6       1.0000 0.16600  0.81420  0.85310  Biso   1.000  S
  S7       1.0000 0.93580  0.41600  0.10310  Biso   1.000  S
  S8       1.0000 0.33400  0.18580  0.35310  Biso   1.000  S
  S9       1.0000 0.93580  0.91600  0.89690  Biso   1.000  S
  S10      1.0000 0.83400  0.18580  0.14690  Biso   1.000  S
  S11      1.0000 0.56420  0.08400  0.39690  Biso   1.000  S
  S12      1.0000 0.66600  0.81420  0.64690  Biso   1.000  S
  S13      1.0000 0.43580  0.41600  0.39690  Biso   1.000  S
  S14      1.0000 0.33400  0.68580  0.64690  Biso   1.000  S
  S15      1.0000 0.06420  0.58400  0.89690  Biso   1.000  S
  S16      1.0000 0.16600  0.31420  0.14690  Biso   1.000  S
  S17      1.0000 0.93350  0.96730  0.12890  Biso   1.000  S
  S18      1.0000 0.78270  0.18350  0.37890  Biso   1.000  S
  S19      1.0000 0.56650  0.03270  0.62890  Biso   1.000  S
  S20      1.0000 0.71730  0.81650  0.87890  Biso   1.000  S
  S21      1.0000 0.43350  0.46730  0.62890  Biso   1.000  S
  S22      1.0000 0.28270  0.68350  0.87890  Biso   1.000  S
  S23      1.0000 0.06650  0.53270  0.12890  Biso   1.000  S
  S24      1.0000 0.21730  0.31650  0.37890  Biso   1.000  S
  S25      1.0000 0.06650  0.03270  0.87110  Biso   1.000  S
  S26      1.0000 0.71730  0.31650  0.12110  Biso   1.000  S
  S27      1.0000 0.43350  0.96730  0.37110  Biso   1.000  S
  S28      1.0000 0.78270  0.68350  0.62110  Biso   1.000  S
  S29      1.0000 0.56650  0.53270  0.37110  Biso   1.000  S
  S30      1.0000 0.21730  0.81650  0.62110  Biso   1.000  S
  S31      1.0000 0.93350  0.46730  0.87110  Biso   1.000  S
  S32      1.0000 0.28270  0.18350  0.12110  Biso   1.000  S
  N1       1.0000 0.00540  0.04630  0.26660  Biso   1.000  N
  N2       1.0000 0.70370  0.25540  0.51660  Biso   1.000  N
  N3       1.0000 0.49460  0.95370  0.76660  Biso   1.000  N
  N4       1.0000 0.79630  0.74460  0.01660  Biso   1.000  N
  N5       1.0000 0.50540  0.54630  0.76660  Biso   1.000  N
  N6       1.0000 0.20370  0.75540  0.01660  Biso   1.000  N
  N7       1.0000 0.99460  0.45370  0.26660  Biso   1.000  N
  N8       1.0000 0.29630  0.24460  0.51660  Biso   1.000  N
  N9       1.0000 0.99460  0.95370  0.73340  Biso   1.000  N
  N10      1.0000 0.79630  0.24460  0.98340  Biso   1.000  N
  N11      1.0000 0.50540  0.04630  0.23340  Biso   1.000  N
  N12      1.0000 0.70370  0.75540  0.48340  Biso   1.000  N
  N13      1.0000 0.49460  0.45370  0.23340  Biso   1.000  N
  N14      1.0000 0.29630  0.74460  0.48340  Biso   1.000  N
  N15      1.0000 0.00540  0.54630  0.73340  Biso   1.000  N
  N16      1.0000 0.20370  0.25540  0.98340  Biso   1.000  N
  C1       1.0000 0.00230  0.03580  0.18130  Biso   1.000  C
  C2       1.0000 0.71420  0.25230  0.43130  Biso   1.000  C
  C3       1.0000 0.49770  0.96420  0.68130  Biso   1.000  C
  C4       1.0000 0.78580  0.74770  0.93130  Biso   1.000  C
  C5       1.0000 0.50230  0.53580  0.68130  Biso   1.000  C
  C6       1.0000 0.21420  0.75230  0.93130  Biso   1.000  C
  C7       1.0000 0.99770  0.46420  0.18130  Biso   1.000  C
  C8       1.0000 0.28580  0.24770  0.43130  Biso   1.000  C
  C9       1.0000 0.99770  0.96420  0.81870  Biso   1.000  C
  C10      1.0000 0.78580  0.24770  0.06870  Biso   1.000  C
  C11      1.0000 0.50230  0.03580  0.31870  Biso   1.000  C
  C12      1.0000 0.71420  0.75230  0.56870  Biso   1.000  C
  C13      1.0000 0.49770  0.46420  0.31870  Biso   1.000  C
  C14      1.0000 0.28580  0.74770  0.56870  Biso   1.000  C
  C15      1.0000 0.00230  0.53580  0.81870  Biso   1.000  C
  C16      1.0000 0.21420  0.25230  0.06870  Biso   1.000  C
  C17      1.0000 0.95490  0.99400  0.32680  Biso   1.000  C
  C18      1.0000 0.75600  0.20490  0.57680  Biso   1.000  C
  C19      1.0000 0.54510  0.00600  0.82680  Biso   1.000  C
  C20      1.0000 0.74400  0.79510  0.07680  Biso   1.000  C
  C21      1.0000 0.45490  0.49400  0.82680  Biso   1.000  C
  C22      1.0000 0.25600  0.70490  0.07680  Biso   1.000  C
  C23      1.0000 0.04510  0.50600  0.32680  Biso   1.000  C
  C24      1.0000 0.24400  0.29510  0.57680  Biso   1.000  C
  C25      1.0000 0.04510  0.00600  0.67320  Biso   1.000  C
  C26      1.0000 0.74400  0.29510  0.92320  Biso   1.000  C
  C27      1.0000 0.45490  0.99400  0.17320  Biso   1.000  C
  C28      1.0000 0.75600  0.70490  0.42320  Biso   1.000  C
  C29      1.0000 0.54510  0.50600  0.17320  Biso   1.000  C
  C30      1.0000 0.24400  0.79510  0.42320  Biso   1.000  C
  C31      1.0000 0.95490  0.49400  0.67320  Biso   1.000  C
  C32      1.0000 0.25600  0.20490  0.92320  Biso   1.000  C
  C33      1.0000 0.00990  0.92000  0.35900  Biso   1.000  C
  C34      1.0000 0.83000  0.25990  0.60900  Biso   1.000  C
  C35      1.0000 0.49010  0.08000  0.85900  Biso   1.000  C
  C36      1.0000 0.67000  0.74010  0.10900  Biso   1.000  C
  C37      1.0000 0.50990  0.42000  0.85900  Biso   1.000  C
  C38      1.0000 0.33000  0.75990  0.10900  Biso   1.000  C
  C39      1.0000 0.99010  0.58000  0.35900  Biso   1.000  C
  C40      1.0000 0.17000  0.24010  0.60900  Biso   1.000  C
  C41      1.0000 0.99010  0.08000  0.64100  Biso   1.000  C
  C42      1.0000 0.67000  0.24010  0.89100  Biso   1.000  C
  C43      1.0000 0.50990  0.92000  0.14100  Biso   1.000  C
  C44      1.0000 0.83000  0.75990  0.39100  Biso   1.000  C
  C45      1.0000 0.49010  0.58000  0.14100  Biso   1.000  C
  C46      1.0000 0.17000  0.74010  0.39100  Biso   1.000  C
  C47      1.0000 0.00990  0.42000  0.64100  Biso   1.000  C
  C48      1.0000 0.33000  0.25990  0.89100  Biso   1.000  C
  C49      1.0000 0.06690  0.10880  0.30310  Biso   1.000  C
  C50      1.0000 0.64120  0.31690  0.55310  Biso   1.000  C
  C51      1.0000 0.43310  0.89120  0.80310  Biso   1.000  C
  C52      1.0000 0.85880  0.68310  0.05310  Biso   1.000  C
  C53      1.0000 0.56690  0.60880  0.80310  Biso   1.000  C
  C54      1.0000 0.14120  0.81690  0.05310  Biso   1.000  C
  C55      1.0000 0.93310  0.39120  0.30310  Biso   1.000  C
  C56      1.0000 0.35880  0.18310  0.55310  Biso   1.000  C
  C57      1.0000 0.93310  0.89120  0.69690  Biso   1.000  C
  C58      1.0000 0.85880  0.18310  0.94690  Biso   1.000  C
  C59      1.0000 0.56690  0.10880  0.19690  Biso   1.000  C
  C60      1.0000 0.64120  0.81690  0.44690  Biso   1.000  C
  C61      1.0000 0.43310  0.39120  0.19690  Biso   1.000  C
  C62      1.0000 0.35880  0.68310  0.44690  Biso   1.000  C
  C63      1.0000 0.06690  0.60880  0.69690  Biso   1.000  C
  C64      1.0000 0.14120  0.31690  0.94690  Biso   1.000  C
  C65      1.0000 0.04200  0.14100  0.39300  Biso   1.000  C
  C66      1.0000 0.60900  0.29200  0.64300  Biso   1.000  C
  C67      1.0000 0.45800  0.85900  0.89300  Biso   1.000  C
  C68      1.0000 0.89100  0.70800  0.14300  Biso   1.000  C
  C69      1.0000 0.54200  0.64100  0.89300  Biso   1.000  C
  C70      1.0000 0.10900  0.79200  0.14300  Biso   1.000  C
  C71      1.0000 0.95800  0.35900  0.39300  Biso   1.000  C
  C72      1.0000 0.39100  0.20800  0.64300  Biso   1.000  C
  C73      1.0000 0.95800  0.85900  0.60700  Biso   1.000  C
  C74      1.0000 0.89100  0.20800  0.85700  Biso   1.000  C
  C75      1.0000 0.54200  0.14100  0.10700  Biso   1.000  C
  C76      1.0000 0.60900  0.79200  0.35700  Biso   1.000  C
  C77      1.0000 0.45800  0.35900  0.10700  Biso   1.000  C
  C78      1.0000 0.39100  0.70800  0.35700  Biso   1.000  C
  C79      1.0000 0.04200  0.64100  0.60700  Biso   1.000  C
  C80      1.0000 0.10900  0.29200  0.85700  Biso   1.000  C
  C81      1.0000 0.02500  0.17800  0.32600  Biso   1.000  C
  C82      1.0000 0.57200  0.27500  0.57600  Biso   1.000  C
  C83      1.0000 0.47500  0.82200  0.82600  Biso   1.000  C
  C84      1.0000 0.92800  0.72500  0.07600  Biso   1.000  C
  C85      1.0000 0.52500  0.67800  0.82600  Biso   1.000  C
  C86      1.0000 0.07200  0.77500  0.07600  Biso   1.000  C
  C87      1.0000 0.97500  0.32200  0.32600  Biso   1.000  C
  C88      1.0000 0.42800  0.22500  0.57600  Biso   1.000  C
  C89      1.0000 0.97500  0.82200  0.67400  Biso   1.000  C
  C90      1.0000 0.92800  0.22500  0.92400  Biso   1.000  C
  C91      1.0000 0.52500  0.17800  0.17400  Biso   1.000  C
  C92      1.0000 0.57200  0.77500  0.42400  Biso   1.000  C
  C93      1.0000 0.47500  0.32200  0.17400  Biso   1.000  C
  C94      1.0000 0.42800  0.72500  0.42400  Biso   1.000  C
  C95      1.0000 0.02500  0.67800  0.67400  Biso   1.000  C
  C96      1.0000 0.07200  0.27500  0.92400  Biso   1.000  C
