data_image0
_cell_length_a       7.8153
_cell_length_b       16.7824
_cell_length_c       12.4426
_cell_angle_alpha    90
_cell_angle_beta     93.41
_cell_angle_gamma    90

_symmetry_space_group_name_H-M    "P 1"
_symmetry_int_tables_number       1

loop_
  _symmetry_equiv_pos_as_xyz
  'x, y, z'

loop_
  _atom_site_label
  _atom_site_occupancy
  _atom_site_fract_x
  _atom_site_fract_y
  _atom_site_fract_z
  _atom_site_thermal_displace_type
  _atom_site_B_iso_or_equiv
  _atom_site_type_symbol
  Cu1      1.0000 0.77157  0.61405  0.56167  Biso   1.000  Cu
  Cu2      1.0000 0.72843  0.11405  0.93833  Biso   1.000  Cu
  Cu3      1.0000 0.22843  0.38595  0.43833  Biso   1.000  Cu
  Cu4      1.0000 0.27157  0.88595  0.06167  Biso   1.000  Cu
  Cl1      1.0000 0.73605  0.13547  0.61633  Biso   1.000  Cl
  Cl2      1.0000 0.76395  0.63547  0.88367  Biso   1.000  Cl
  Cl3      1.0000 0.26395  0.86453  0.38367  Biso   1.000  Cl
  Cl4      1.0000 0.23605  0.36453  0.11633  Biso   1.000  Cl
  Cl5      1.0000 0.74398  0.57225  0.28428  Biso   1.000  Cl
  Cl6      1.0000 0.75602  0.07225  0.21572  Biso   1.000  Cl
  Cl7      1.0000 0.25602  0.42775  0.71572  Biso   1.000  Cl
  Cl8      1.0000 0.24398  0.92775  0.78428  Biso   1.000  Cl
  O1       1.0000 0.71030  0.17020  0.71310  Biso   1.000  O
  O2       1.0000 0.78970  0.67020  0.78690  Biso   1.000  O
  O3       1.0000 0.28970  0.82980  0.28690  Biso   1.000  O
  O4       1.0000 0.21030  0.32980  0.21310  Biso   1.000  O
  O5       1.0000 0.76300  0.20230  0.55840  Biso   1.000  O
  O6       1.0000 0.73700  0.70230  0.94160  Biso   1.000  O
  O7       1.0000 0.23700  0.79770  0.44160  Biso   1.000  O
  O8       1.0000 0.26300  0.29770  0.05840  Biso   1.000  O
  O9       1.0000 0.86700  0.07990  0.60800  Biso   1.000  O
  O10      1.0000 0.63300  0.57990  0.89200  Biso   1.000  O
  O11      1.0000 0.13300  0.92010  0.39200  Biso   1.000  O
  O12      1.0000 0.36700  0.42010  0.10800  Biso   1.000  O
  O13      1.0000 0.58660  0.09290  0.58440  Biso   1.000  O
  O14      1.0000 0.91340  0.59290  0.91560  Biso   1.000  O
  O15      1.0000 0.41340  0.90710  0.41560  Biso   1.000  O
  O16      1.0000 0.08660  0.40710  0.08440  Biso   1.000  O
  O17      1.0000 0.84230  0.53310  0.20710  Biso   1.000  O
  O18      1.0000 0.65770  0.03310  0.29290  Biso   1.000  O
  O19      1.0000 0.15770  0.46690  0.79290  Biso   1.000  O
  O20      1.0000 0.34230  0.96690  0.70710  Biso   1.000  O
  O21      1.0000 0.76710  0.65700  0.27330  Biso   1.000  O
  O22      1.0000 0.73290  0.15700  0.22670  Biso   1.000  O
  O23      1.0000 0.23290  0.34300  0.72670  Biso   1.000  O
  O24      1.0000 0.26710  0.84300  0.77330  Biso   1.000  O
  O25      1.0000 0.81100  0.55140  0.39060  Biso   1.000  O
  O26      1.0000 0.68900  0.05140  0.10940  Biso   1.000  O
  O27      1.0000 0.18900  0.44860  0.60940  Biso   1.000  O
  O28      1.0000 0.31100  0.94860  0.89060  Biso   1.000  O
  O29      1.0000 0.57090  0.55580  0.26890  Biso   1.000  O
  O30      1.0000 0.92910  0.05580  0.23110  Biso   1.000  O
  O31      1.0000 0.42910  0.44420  0.73110  Biso   1.000  O
  O32      1.0000 0.07090  0.94420  0.76890  Biso   1.000  O
  O33      1.0000 0.71980  0.37520  0.12150  Biso   1.000  O
  O34      1.0000 0.78020  0.87520  0.37850  Biso   1.000  O
  O35      1.0000 0.28020  0.62480  0.87850  Biso   1.000  O
  O36      1.0000 0.21980  0.12480  0.62150  Biso   1.000  O
  H1       1.0000 0.76140  0.43240  0.13340  Biso   1.000  H
  H2       1.0000 0.73860  0.93240  0.36660  Biso   1.000  H
  H3       1.0000 0.23860  0.56760  0.86660  Biso   1.000  H
  H4       1.0000 0.26140  0.06760  0.63340  Biso   1.000  H
  H5       1.0000 0.59240  0.38110  0.12650  Biso   1.000  H
  H6       1.0000 0.90760  0.88110  0.37350  Biso   1.000  H
  H7       1.0000 0.40760  0.61890  0.87350  Biso   1.000  H
  H8       1.0000 0.09240  0.11890  0.62650  Biso   1.000  H
  N1       1.0000 0.78570  0.51110  0.62990  Biso   1.000  N
  N2       1.0000 0.71430  0.01110  0.87010  Biso   1.000  N
  N3       1.0000 0.21430  0.48890  0.37010  Biso   1.000  N
  N4       1.0000 0.28570  0.98890  0.12990  Biso   1.000  N
  N5       1.0000 0.76630  0.31890  0.91990  Biso   1.000  N
  N6       1.0000 0.73370  0.81890  0.58010  Biso   1.000  N
  N7       1.0000 0.23370  0.68110  0.08010  Biso   1.000  N
  N8       1.0000 0.26630  0.18110  0.41990  Biso   1.000  N
  H9       1.0000 0.76930  0.33230  0.99090  Biso   1.000  H
  H10      1.0000 0.73070  0.83230  0.50910  Biso   1.000  H
  H11      1.0000 0.23070  0.66770  0.00910  Biso   1.000  H
  H12      1.0000 0.26930  0.16770  0.49090  Biso   1.000  H
  C1       1.0000 0.78970  0.45460  0.67900  Biso   1.000  C
  C2       1.0000 0.71030  0.95460  0.82100  Biso   1.000  C
  C3       1.0000 0.21030  0.54540  0.32100  Biso   1.000  C
  C4       1.0000 0.28970  0.04540  0.17900  Biso   1.000  C
  C5       1.0000 0.79580  0.38040  0.73880  Biso   1.000  C
  C6       1.0000 0.70420  0.88040  0.76120  Biso   1.000  C
  C7       1.0000 0.20420  0.61960  0.26120  Biso   1.000  C
  C8       1.0000 0.29580  0.11960  0.23880  Biso   1.000  C
  H13      1.0000 0.90240  0.35300  0.72720  Biso   1.000  H
  H14      1.0000 0.59760  0.85300  0.77280  Biso   1.000  H
  H15      1.0000 0.09760  0.64700  0.27280  Biso   1.000  H
  H16      1.0000 0.40240  0.14700  0.22720  Biso   1.000  H
  H17      1.0000 0.70200  0.34640  0.71260  Biso   1.000  H
  H18      1.0000 0.79800  0.84640  0.78740  Biso   1.000  H
  H19      1.0000 0.29800  0.65360  0.28740  Biso   1.000  H
  H20      1.0000 0.20200  0.15360  0.21260  Biso   1.000  H
  C9       1.0000 0.78270  0.39530  0.85910  Biso   1.000  C
  C10      1.0000 0.71730  0.89530  0.64090  Biso   1.000  C
  C11      1.0000 0.21730  0.60470  0.14090  Biso   1.000  C
  C12      1.0000 0.28270  0.10470  0.35910  Biso   1.000  C
  H21      1.0000 0.88400  0.42360  0.88700  Biso   1.000  H
  H22      1.0000 0.61600  0.92360  0.61300  Biso   1.000  H
  H23      1.0000 0.11600  0.57640  0.11300  Biso   1.000  H
  H24      1.0000 0.38400  0.07640  0.38700  Biso   1.000  H
  H25      1.0000 0.68380  0.42860  0.86990  Biso   1.000  H
  H26      1.0000 0.81620  0.92860  0.63010  Biso   1.000  H
  H27      1.0000 0.31620  0.57140  0.13010  Biso   1.000  H
  H28      1.0000 0.18380  0.07140  0.36990  Biso   1.000  H
  C13      1.0000 0.59550  0.28110  0.89460  Biso   1.000  C
  C14      1.0000 0.90450  0.78110  0.60540  Biso   1.000  C
  C15      1.0000 0.40450  0.71890  0.10540  Biso   1.000  C
  C16      1.0000 0.09550  0.21890  0.39460  Biso   1.000  C
  H29      1.0000 0.58970  0.26380  0.82010  Biso   1.000  H
  H30      1.0000 0.91030  0.76380  0.67990  Biso   1.000  H
  H31      1.0000 0.41030  0.73620  0.17990  Biso   1.000  H
  H32      1.0000 0.08970  0.23620  0.32010  Biso   1.000  H
  H33      1.0000 0.50710  0.32100  0.90180  Biso   1.000  H
  H34      1.0000 0.99290  0.82100  0.59820  Biso   1.000  H
  H35      1.0000 0.49290  0.67900  0.09820  Biso   1.000  H
  H36      1.0000 0.00710  0.17900  0.40180  Biso   1.000  H
  C17      1.0000 0.55720  0.21120  0.96420  Biso   1.000  C
  C18      1.0000 0.94280  0.71120  0.53580  Biso   1.000  C
  C19      1.0000 0.44280  0.78880  0.03580  Biso   1.000  C
  C20      1.0000 0.05720  0.28880  0.46420  Biso   1.000  C
  H37      1.0000 0.59500  0.21160  0.03650  Biso   1.000  H
  H38      1.0000 0.90500  0.71160  0.46350  Biso   1.000  H
  H39      1.0000 0.40500  0.78840  0.96350  Biso   1.000  H
  H40      1.0000 0.09500  0.28840  0.53650  Biso   1.000  H
  C21      1.0000 0.46810  0.14710  0.92350  Biso   1.000  C
  C22      1.0000 0.03190  0.64710  0.57650  Biso   1.000  C
  C23      1.0000 0.53190  0.85290  0.07650  Biso   1.000  C
  C24      1.0000 0.96810  0.35290  0.42350  Biso   1.000  C
  H41      1.0000 0.42990  0.14620  0.85130  Biso   1.000  H
  H42      1.0000 0.07010  0.64620  0.64870  Biso   1.000  H
  H43      1.0000 0.57010  0.85380  0.14870  Biso   1.000  H
  H44      1.0000 0.92990  0.35380  0.35130  Biso   1.000  H
  H45      1.0000 0.44560  0.10430  0.96800  Biso   1.000  H
  H46      1.0000 0.05440  0.60430  0.53200  Biso   1.000  H
  H47      1.0000 0.55440  0.89570  0.03200  Biso   1.000  H
  H48      1.0000 0.94560  0.39570  0.46800  Biso   1.000  H
  C25      1.0000 0.91800  0.26590  0.90640  Biso   1.000  C
  C26      1.0000 0.58200  0.76590  0.59360  Biso   1.000  C
  C27      1.0000 0.08200  0.73410  0.09360  Biso   1.000  C
  C28      1.0000 0.41800  0.23410  0.40640  Biso   1.000  C
  H49      1.0000 0.91280  0.24590  0.83320  Biso   1.000  H
  H50      1.0000 0.58720  0.74590  0.66680  Biso   1.000  H
  H51      1.0000 0.08720  0.75410  0.16680  Biso   1.000  H
  H52      1.0000 0.41280  0.25410  0.33320  Biso   1.000  H
  H53      1.0000 0.02170  0.29740  0.91700  Biso   1.000  H
  H54      1.0000 0.47830  0.79740  0.58300  Biso   1.000  H
  H55      1.0000 0.97830  0.70260  0.08300  Biso   1.000  H
  H56      1.0000 0.52170  0.20260  0.41700  Biso   1.000  H
  C29      1.0000 0.92860  0.19690  0.98220  Biso   1.000  C
  C30      1.0000 0.57140  0.69690  0.51780  Biso   1.000  C
  C31      1.0000 0.07140  0.80310  0.01780  Biso   1.000  C
  C32      1.0000 0.42860  0.30310  0.48220  Biso   1.000  C
  H57      1.0000 0.88740  0.20260  0.05030  Biso   1.000  H
  H58      1.0000 0.61260  0.70260  0.44970  Biso   1.000  H
  H59      1.0000 0.11260  0.79740  0.94970  Biso   1.000  H
  H60      1.0000 0.38740  0.29740  0.55030  Biso   1.000  H
  C33      1.0000 0.99650  0.12660  0.95430  Biso   1.000  C
  C34      1.0000 0.50350  0.62660  0.54570  Biso   1.000  C
  C35      1.0000 0.00350  0.87340  0.04570  Biso   1.000  C
  C36      1.0000 0.49650  0.37340  0.45430  Biso   1.000  C
  H61      1.0000 0.03820  0.12020  0.88640  Biso   1.000  H
  H62      1.0000 0.46180  0.62020  0.61360  Biso   1.000  H
  H63      1.0000 0.96180  0.87980  0.11360  Biso   1.000  H
  H64      1.0000 0.53820  0.37980  0.38640  Biso   1.000  H
  H65      1.0000 0.00160  0.08450  0.00300  Biso   1.000  H
  H66      1.0000 0.49840  0.58450  0.49700  Biso   1.000  H
  H67      1.0000 0.99840  0.91550  0.99700  Biso   1.000  H
  H68      1.0000 0.50160  0.41550  0.50300  Biso   1.000  H
  O37      1.0000 0.77900  0.17510  0.53010  Biso   1.000  O
  O38      1.0000 0.72100  0.67510  0.96990  Biso   1.000  O
  O39      1.0000 0.22100  0.82490  0.46990  Biso   1.000  O
  O40      1.0000 0.27900  0.32490  0.03010  Biso   1.000  O
  O41      1.0000 0.87000  0.09640  0.66460  Biso   1.000  O
  O42      1.0000 0.63000  0.59640  0.83540  Biso   1.000  O
  O43      1.0000 0.13000  0.90360  0.33540  Biso   1.000  O
  O44      1.0000 0.37000  0.40360  0.16460  Biso   1.000  O
