data_image0
_cell_length_a       7.6755
_cell_length_b       16.7119
_cell_length_c       12.3784
_cell_angle_alpha    90
_cell_angle_beta     94.354
_cell_angle_gamma    90

_symmetry_space_group_name_H-M    "P 1"
_symmetry_int_tables_number       1

loop_
  _symmetry_equiv_pos_as_xyz
  'x, y, z'

loop_
  _atom_site_label
  _atom_site_occupancy
  _atom_site_fract_x
  _atom_site_fract_y
  _atom_site_fract_z
  _atom_site_thermal_displace_type
  _atom_site_B_iso_or_equiv
  _atom_site_type_symbol
  Cu1      1.0000 0.77756  0.61744  0.56324  Biso   1.000  Cu
  Cu2      1.0000 0.72244  0.11744  0.93676  Biso   1.000  Cu
  Cu3      1.0000 0.22244  0.38256  0.43676  Biso   1.000  Cu
  Cu4      1.0000 0.27756  0.88256  0.06324  Biso   1.000  Cu
  F1       1.0000 0.70720  0.17500  0.71530  Biso   1.000  F
  F2       1.0000 0.79280  0.67500  0.78470  Biso   1.000  F
  F3       1.0000 0.29280  0.82500  0.28470  Biso   1.000  F
  F4       1.0000 0.20720  0.32500  0.21530  Biso   1.000  F
  F5       1.0000 0.76400  0.20270  0.56780  Biso   1.000  F
  F6       1.0000 0.73600  0.70270  0.93220  Biso   1.000  F
  F7       1.0000 0.23600  0.79730  0.43220  Biso   1.000  F
  F8       1.0000 0.26400  0.29730  0.06780  Biso   1.000  F
  F9       1.0000 0.86400  0.08340  0.62690  Biso   1.000  F
  F10      1.0000 0.63600  0.58340  0.87310  Biso   1.000  F
  F11      1.0000 0.13600  0.91660  0.37310  Biso   1.000  F
  F12      1.0000 0.36400  0.41660  0.12690  Biso   1.000  F
  F13      1.0000 0.58890  0.09540  0.59400  Biso   1.000  F
  F14      1.0000 0.91110  0.59540  0.90600  Biso   1.000  F
  F15      1.0000 0.41110  0.90460  0.40600  Biso   1.000  F
  F16      1.0000 0.08890  0.40460  0.09400  Biso   1.000  F
  F17      1.0000 0.82300  0.53510  0.20780  Biso   1.000  F
  F18      1.0000 0.67700  0.03510  0.29220  Biso   1.000  F
  F19      1.0000 0.17700  0.46490  0.79220  Biso   1.000  F
  F20      1.0000 0.32300  0.96490  0.70780  Biso   1.000  F
  F21      1.0000 0.76720  0.65670  0.27160  Biso   1.000  F
  F22      1.0000 0.73280  0.15670  0.22840  Biso   1.000  F
  F23      1.0000 0.23280  0.34330  0.72840  Biso   1.000  F
  F24      1.0000 0.26720  0.84330  0.77160  Biso   1.000  F
  F25      1.0000 0.81010  0.55710  0.38560  Biso   1.000  F
  F26      1.0000 0.68990  0.05710  0.11440  Biso   1.000  F
  F27      1.0000 0.18990  0.44290  0.61440  Biso   1.000  F
  F28      1.0000 0.31010  0.94290  0.88560  Biso   1.000  F
  F29      1.0000 0.56260  0.56450  0.27500  Biso   1.000  F
  F30      1.0000 0.93740  0.06450  0.22500  Biso   1.000  F
  F31      1.0000 0.43740  0.43550  0.72500  Biso   1.000  F
  F32      1.0000 0.06260  0.93550  0.77500  Biso   1.000  F
  O1       1.0000 0.71850  0.37880  0.12470  Biso   1.000  O
  O2       1.0000 0.78150  0.87880  0.37530  Biso   1.000  O
  O3       1.0000 0.28150  0.62120  0.87530  Biso   1.000  O
  O4       1.0000 0.21850  0.12120  0.62470  Biso   1.000  O
  H1       1.0000 0.76140  0.43240  0.13340  Biso   1.000  H
  H2       1.0000 0.73860  0.93240  0.36660  Biso   1.000  H
  H3       1.0000 0.23860  0.56760  0.86660  Biso   1.000  H
  H4       1.0000 0.26140  0.06760  0.63340  Biso   1.000  H
  H5       1.0000 0.59240  0.38110  0.12650  Biso   1.000  H
  H6       1.0000 0.90760  0.88110  0.37350  Biso   1.000  H
  H7       1.0000 0.40760  0.61890  0.87350  Biso   1.000  H
  H8       1.0000 0.09240  0.11890  0.62650  Biso   1.000  H
  N1       1.0000 0.79570  0.51480  0.63070  Biso   1.000  N
  N2       1.0000 0.70430  0.01480  0.86930  Biso   1.000  N
  N3       1.0000 0.20430  0.48520  0.36930  Biso   1.000  N
  N4       1.0000 0.29570  0.98520  0.13070  Biso   1.000  N
  N5       1.0000 0.77110  0.32250  0.92370  Biso   1.000  N
  N6       1.0000 0.72890  0.82250  0.57630  Biso   1.000  N
  N7       1.0000 0.22890  0.67750  0.07630  Biso   1.000  N
  N8       1.0000 0.27110  0.17750  0.42370  Biso   1.000  N
  H9       1.0000 0.77490  0.33580  0.99510  Biso   1.000  H
  H10      1.0000 0.72510  0.83580  0.50490  Biso   1.000  H
  H11      1.0000 0.22510  0.66420  0.00490  Biso   1.000  H
  H12      1.0000 0.27490  0.16420  0.49510  Biso   1.000  H
  C1       1.0000 0.80260  0.45800  0.68110  Biso   1.000  C
  C2       1.0000 0.69740  0.95800  0.81890  Biso   1.000  C
  C3       1.0000 0.19740  0.54200  0.31890  Biso   1.000  C
  C4       1.0000 0.30260  0.04200  0.18110  Biso   1.000  C
  C5       1.0000 0.80820  0.38350  0.74250  Biso   1.000  C
  C6       1.0000 0.69180  0.88350  0.75750  Biso   1.000  C
  C7       1.0000 0.19180  0.61650  0.25750  Biso   1.000  C
  C8       1.0000 0.30820  0.11650  0.24250  Biso   1.000  C
  H13      1.0000 0.91740  0.35610  0.73310  Biso   1.000  H
  H14      1.0000 0.58260  0.85610  0.76690  Biso   1.000  H
  H15      1.0000 0.08260  0.64390  0.26690  Biso   1.000  H
  H16      1.0000 0.41740  0.14390  0.23310  Biso   1.000  H
  H17      1.0000 0.71340  0.34910  0.71490  Biso   1.000  H
  H18      1.0000 0.78660  0.84910  0.78510  Biso   1.000  H
  H19      1.0000 0.28660  0.65090  0.28510  Biso   1.000  H
  H20      1.0000 0.21340  0.15090  0.21490  Biso   1.000  H
  C9       1.0000 0.79230  0.39930  0.86240  Biso   1.000  C
  C10      1.0000 0.70770  0.89930  0.63760  Biso   1.000  C
  C11      1.0000 0.20770  0.60070  0.13760  Biso   1.000  C
  C12      1.0000 0.29230  0.10070  0.36240  Biso   1.000  C
  H21      1.0000 0.89600  0.42700  0.89240  Biso   1.000  H
  H22      1.0000 0.60400  0.92700  0.60760  Biso   1.000  H
  H23      1.0000 0.10400  0.57300  0.10760  Biso   1.000  H
  H24      1.0000 0.39600  0.07300  0.39240  Biso   1.000  H
  H25      1.0000 0.69240  0.43350  0.87100  Biso   1.000  H
  H26      1.0000 0.80760  0.93350  0.62900  Biso   1.000  H
  H27      1.0000 0.30760  0.56650  0.12900  Biso   1.000  H
  H28      1.0000 0.19240  0.06650  0.37100  Biso   1.000  H
  C13      1.0000 0.59430  0.28620  0.89560  Biso   1.000  C
  C14      1.0000 0.90570  0.78620  0.60440  Biso   1.000  C
  C15      1.0000 0.40570  0.71380  0.10440  Biso   1.000  C
  C16      1.0000 0.09430  0.21380  0.39560  Biso   1.000  C
  H29      1.0000 0.50580  0.32680  0.90320  Biso   1.000  H
  H30      1.0000 0.99420  0.82680  0.59680  Biso   1.000  H
  H31      1.0000 0.49420  0.67320  0.09680  Biso   1.000  H
  H32      1.0000 0.00580  0.17320  0.40320  Biso   1.000  H
  H33      1.0000 0.58720  0.26970  0.82030  Biso   1.000  H
  H34      1.0000 0.91280  0.76970  0.67970  Biso   1.000  H
  H35      1.0000 0.41280  0.73030  0.17970  Biso   1.000  H
  H36      1.0000 0.08720  0.23030  0.32030  Biso   1.000  H
  C17      1.0000 0.55460  0.21550  0.96430  Biso   1.000  C
  C18      1.0000 0.94540  0.71550  0.53570  Biso   1.000  C
  C19      1.0000 0.44540  0.78450  0.03570  Biso   1.000  C
  C20      1.0000 0.05460  0.28450  0.46430  Biso   1.000  C
  H37      1.0000 0.59470  0.21490  0.03710  Biso   1.000  H
  H38      1.0000 0.90530  0.71490  0.46290  Biso   1.000  H
  H39      1.0000 0.40530  0.78510  0.96290  Biso   1.000  H
  H40      1.0000 0.09470  0.28510  0.53710  Biso   1.000  H
  C21      1.0000 0.46080  0.15230  0.92190  Biso   1.000  C
  C22      1.0000 0.03920  0.65230  0.57810  Biso   1.000  C
  C23      1.0000 0.53920  0.84770  0.07810  Biso   1.000  C
  C24      1.0000 0.96080  0.34770  0.42190  Biso   1.000  C
  H41      1.0000 0.42020  0.15250  0.84920  Biso   1.000  H
  H42      1.0000 0.07980  0.65250  0.65080  Biso   1.000  H
  H43      1.0000 0.57980  0.84750  0.15080  Biso   1.000  H
  H44      1.0000 0.92020  0.34750  0.34920  Biso   1.000  H
  H45      1.0000 0.43730  0.10900  0.96560  Biso   1.000  H
  H46      1.0000 0.06270  0.60900  0.53440  Biso   1.000  H
  H47      1.0000 0.56270  0.89100  0.03440  Biso   1.000  H
  H48      1.0000 0.93730  0.39100  0.46560  Biso   1.000  H
  C25      1.0000 0.92270  0.26720  0.91080  Biso   1.000  C
  C26      1.0000 0.57730  0.76720  0.58920  Biso   1.000  C
  C27      1.0000 0.07730  0.73280  0.08920  Biso   1.000  C
  C28      1.0000 0.42270  0.23280  0.41080  Biso   1.000  C
  H49      1.0000 0.91550  0.24730  0.83700  Biso   1.000  H
  H50      1.0000 0.58450  0.74730  0.66300  Biso   1.000  H
  H51      1.0000 0.08450  0.75270  0.16300  Biso   1.000  H
  H52      1.0000 0.41550  0.25270  0.33700  Biso   1.000  H
  H53      1.0000 0.03040  0.29750  0.92220  Biso   1.000  H
  H54      1.0000 0.46960  0.79750  0.57780  Biso   1.000  H
  H55      1.0000 0.96960  0.70250  0.07780  Biso   1.000  H
  H56      1.0000 0.53040  0.20250  0.42220  Biso   1.000  H
  C29      1.0000 0.93030  0.19770  0.98660  Biso   1.000  C
  C30      1.0000 0.56970  0.69770  0.51340  Biso   1.000  C
  C31      1.0000 0.06970  0.80230  0.01340  Biso   1.000  C
  C32      1.0000 0.43030  0.30230  0.48660  Biso   1.000  C
  H57      1.0000 0.89090  0.20410  0.05530  Biso   1.000  H
  H58      1.0000 0.60910  0.70410  0.44470  Biso   1.000  H
  H59      1.0000 0.10910  0.79590  0.94470  Biso   1.000  H
  H60      1.0000 0.39090  0.29590  0.55530  Biso   1.000  H
  C33      1.0000 0.99300  0.12560  0.95800  Biso   1.000  C
  C34      1.0000 0.50700  0.62560  0.54200  Biso   1.000  C
  C35      1.0000 0.00700  0.87440  0.04200  Biso   1.000  C
  C36      1.0000 0.49300  0.37440  0.45800  Biso   1.000  C
  H61      1.0000 0.03280  0.11840  0.88950  Biso   1.000  H
  H62      1.0000 0.46720  0.61840  0.61050  Biso   1.000  H
  H63      1.0000 0.96720  0.88160  0.11050  Biso   1.000  H
  H64      1.0000 0.53280  0.38160  0.38950  Biso   1.000  H
  H65      1.0000 0.99620  0.08320  0.00690  Biso   1.000  H
  H66      1.0000 0.50380  0.58320  0.49310  Biso   1.000  H
  H67      1.0000 0.00380  0.91680  0.99310  Biso   1.000  H
  H68      1.0000 0.49620  0.41680  0.50690  Biso   1.000  H
  B1       1.0000 0.73680  0.13850  0.62360  Biso   1.000  B
  B2       1.0000 0.76320  0.63850  0.87640  Biso   1.000  B
  B3       1.0000 0.26320  0.86150  0.37640  Biso   1.000  B
  B4       1.0000 0.23680  0.36150  0.12360  Biso   1.000  B
  B5       1.0000 0.73800  0.57390  0.28400  Biso   1.000  B
  B6       1.0000 0.76200  0.07390  0.21600  Biso   1.000  B
  B7       1.0000 0.26200  0.42610  0.71600  Biso   1.000  B
  B8       1.0000 0.23800  0.92610  0.78400  Biso   1.000  B
  F33      1.0000 0.78500  0.17190  0.53940  Biso   1.000  F
  F34      1.0000 0.71500  0.67190  0.96060  Biso   1.000  F
  F35      1.0000 0.21500  0.82810  0.46060  Biso   1.000  F
  F36      1.0000 0.28500  0.32810  0.03940  Biso   1.000  F
  F37      1.0000 0.87300  0.09880  0.67360  Biso   1.000  F
  F38      1.0000 0.62700  0.59880  0.82640  Biso   1.000  F
  F39      1.0000 0.12700  0.90120  0.32640  Biso   1.000  F
  F40      1.0000 0.37300  0.40120  0.17360  Biso   1.000  F
