data_image0
_cell_length_a       9.826
_cell_length_b       24.009
_cell_length_c       12.061
_cell_angle_alpha    90
_cell_angle_beta     91.82
_cell_angle_gamma    90

_symmetry_space_group_name_H-M    "P 1"
_symmetry_int_tables_number       1

loop_
  _symmetry_equiv_pos_as_xyz
  'x, y, z'

loop_
  _atom_site_label
  _atom_site_occupancy
  _atom_site_fract_x
  _atom_site_fract_y
  _atom_site_fract_z
  _atom_site_thermal_displace_type
  _atom_site_B_iso_or_equiv
  _atom_site_type_symbol
  Cu1      1.0000 0.51392  0.23097  0.26643  Biso   1.000  Cu
  Cu2      1.0000 0.48608  0.73097  0.23357  Biso   1.000  Cu
  Cu3      1.0000 0.48608  0.76903  0.73357  Biso   1.000  Cu
  Cu4      1.0000 0.51392  0.26903  0.76643  Biso   1.000  Cu
  Cu5      1.0000 0.55231  0.49918  0.24001  Biso   1.000  Cu
  Cu6      1.0000 0.44769  0.99918  0.25999  Biso   1.000  Cu
  Cu7      1.0000 0.44769  0.50082  0.75999  Biso   1.000  Cu
  Cu8      1.0000 0.55231  0.00082  0.74001  Biso   1.000  Cu
  Si1      1.0000 0.84300  0.63386  0.98180  Biso   1.000  Si
  Si2      1.0000 0.15700  0.13386  0.51820  Biso   1.000  Si
  Si3      1.0000 0.15700  0.36614  0.01820  Biso   1.000  Si
  Si4      1.0000 0.84300  0.86614  0.48180  Biso   1.000  Si
  Si5      1.0000 0.87630  0.11684  0.99170  Biso   1.000  Si
  Si6      1.0000 0.12370  0.61684  0.50830  Biso   1.000  Si
  Si7      1.0000 0.12370  0.88316  0.00830  Biso   1.000  Si
  Si8      1.0000 0.87630  0.38316  0.49170  Biso   1.000  Si
  F1       1.0000 0.80150  0.63450  0.84630  Biso   1.000  F
  F2       1.0000 0.19850  0.13450  0.65370  Biso   1.000  F
  F3       1.0000 0.19850  0.36550  0.15370  Biso   1.000  F
  F4       1.0000 0.80150  0.86550  0.34630  Biso   1.000  F
  F5       1.0000 0.89360  0.56730  0.97130  Biso   1.000  F
  F6       1.0000 0.10640  0.06730  0.52870  Biso   1.000  F
  F7       1.0000 0.10640  0.43270  0.02870  Biso   1.000  F
  F8       1.0000 0.89360  0.93270  0.47130  Biso   1.000  F
  F9       1.0000 0.68990  0.61320  0.01230  Biso   1.000  F
  F10      1.0000 0.31010  0.11320  0.48770  Biso   1.000  F
  F11      1.0000 0.31010  0.38680  0.98770  Biso   1.000  F
  F12      1.0000 0.68990  0.88680  0.51230  Biso   1.000  F
  F13      1.0000 0.88860  0.63410  0.11680  Biso   1.000  F
  F14      1.0000 0.11140  0.13410  0.38320  Biso   1.000  F
  F15      1.0000 0.11140  0.36590  0.88320  Biso   1.000  F
  F16      1.0000 0.88860  0.86590  0.61680  Biso   1.000  F
  F17      1.0000 0.79420  0.70100  0.99190  Biso   1.000  F
  F18      1.0000 0.20580  0.20100  0.50810  Biso   1.000  F
  F19      1.0000 0.20580  0.29900  0.00810  Biso   1.000  F
  F20      1.0000 0.79420  0.79900  0.49190  Biso   1.000  F
  F21      1.0000 0.99870  0.65560  0.95090  Biso   1.000  F
  F22      1.0000 0.00130  0.15560  0.54910  Biso   1.000  F
  F23      1.0000 0.00130  0.34440  0.04910  Biso   1.000  F
  F24      1.0000 0.99870  0.84440  0.45090  Biso   1.000  F
  F25      1.0000 0.88780  0.12110  0.85270  Biso   1.000  F
  F26      1.0000 0.11220  0.62110  0.64730  Biso   1.000  F
  F27      1.0000 0.11220  0.87890  0.14730  Biso   1.000  F
  F28      1.0000 0.88780  0.37890  0.35270  Biso   1.000  F
  F29      1.0000 0.84700  0.18660  0.99460  Biso   1.000  F
  F30      1.0000 0.15300  0.68660  0.50540  Biso   1.000  F
  F31      1.0000 0.15300  0.81340  0.00540  Biso   1.000  F
  F32      1.0000 0.84700  0.31340  0.49460  Biso   1.000  F
  F33      1.0000 0.86070  0.11470  0.12900  Biso   1.000  F
  F34      1.0000 0.13930  0.61470  0.37100  Biso   1.000  F
  F35      1.0000 0.13930  0.88530  0.87100  Biso   1.000  F
  F36      1.0000 0.86070  0.38530  0.62900  Biso   1.000  F
  F37      1.0000 0.90150  0.04860  0.98500  Biso   1.000  F
  F38      1.0000 0.09850  0.54860  0.51500  Biso   1.000  F
  F39      1.0000 0.09850  0.95140  0.01500  Biso   1.000  F
  F40      1.0000 0.90150  0.45140  0.48500  Biso   1.000  F
  F41      1.0000 0.04370  0.12850  0.00810  Biso   1.000  F
  F42      1.0000 0.95630  0.62850  0.49190  Biso   1.000  F
  F43      1.0000 0.95630  0.87150  0.99190  Biso   1.000  F
  F44      1.0000 0.04370  0.37150  0.50810  Biso   1.000  F
  F45      1.0000 0.70670  0.10780  0.97470  Biso   1.000  F
  F46      1.0000 0.29330  0.60780  0.52530  Biso   1.000  F
  F47      1.0000 0.29330  0.89220  0.02530  Biso   1.000  F
  F48      1.0000 0.70670  0.39220  0.47470  Biso   1.000  F
  O1       1.0000 0.39330  0.27800  0.44610  Biso   1.000  O
  O2       1.0000 0.60670  0.77800  0.05390  Biso   1.000  O
  O3       1.0000 0.60670  0.72200  0.55390  Biso   1.000  O
  O4       1.0000 0.39330  0.22200  0.94610  Biso   1.000  O
  O5       1.0000 0.25710  0.37300  0.36670  Biso   1.000  O
  O6       1.0000 0.74290  0.87300  0.13330  Biso   1.000  O
  O7       1.0000 0.74290  0.62700  0.63330  Biso   1.000  O
  O8       1.0000 0.25710  0.12700  0.86670  Biso   1.000  O
  O9       1.0000 0.57350  0.18540  0.10580  Biso   1.000  O
  O10      1.0000 0.42650  0.68540  0.39420  Biso   1.000  O
  O11      1.0000 0.42650  0.81460  0.89420  Biso   1.000  O
  O12      1.0000 0.57350  0.31460  0.60580  Biso   1.000  O
  O13      1.0000 0.48930  0.43670  0.36120  Biso   1.000  O
  O14      1.0000 0.51070  0.93670  0.13880  Biso   1.000  O
  O15      1.0000 0.51070  0.56330  0.63880  Biso   1.000  O
  O16      1.0000 0.48930  0.06330  0.86120  Biso   1.000  O
  N1       1.0000 0.32290  0.21700  0.22700  Biso   1.000  N
  N2       1.0000 0.67710  0.71700  0.27300  Biso   1.000  N
  N3       1.0000 0.67710  0.78300  0.77300  Biso   1.000  N
  N4       1.0000 0.32290  0.28300  0.72700  Biso   1.000  N
  N5       1.0000 0.86100  0.25710  0.30490  Biso   1.000  N
  N6       1.0000 0.13900  0.75710  0.19510  Biso   1.000  N
  N7       1.0000 0.13900  0.74290  0.69510  Biso   1.000  N
  N8       1.0000 0.86100  0.24290  0.80490  Biso   1.000  N
  H1       1.0000 0.84580  0.27940  0.36420  Biso   1.000  H
  H2       1.0000 0.15420  0.77940  0.13580  Biso   1.000  H
  H3       1.0000 0.15420  0.72060  0.63580  Biso   1.000  H
  H4       1.0000 0.84580  0.22060  0.86420  Biso   1.000  H
  N9       1.0000 0.36650  0.52040  0.19980  Biso   1.000  N
  N10      1.0000 0.63350  0.02040  0.30020  Biso   1.000  N
  N11      1.0000 0.63350  0.47960  0.80020  Biso   1.000  N
  N12      1.0000 0.36650  0.97960  0.69980  Biso   1.000  N
  N13      1.0000 0.90050  0.48860  0.26220  Biso   1.000  N
  N14      1.0000 0.09950  0.98860  0.23780  Biso   1.000  N
  N15      1.0000 0.09950  0.51140  0.73780  Biso   1.000  N
  N16      1.0000 0.90050  0.01140  0.76220  Biso   1.000  N
  H5       1.0000 0.87880  0.46150  0.31120  Biso   1.000  H
  H6       1.0000 0.12120  0.96150  0.18880  Biso   1.000  H
  H7       1.0000 0.12120  0.53850  0.68880  Biso   1.000  H
  H8       1.0000 0.87880  0.03850  0.81120  Biso   1.000  H
  C1       1.0000 0.20640  0.21810  0.21080  Biso   1.000  C
  C2       1.0000 0.79360  0.71810  0.28920  Biso   1.000  C
  C3       1.0000 0.79360  0.78190  0.78920  Biso   1.000  C
  C4       1.0000 0.20640  0.28190  0.71080  Biso   1.000  C
  C5       1.0000 0.06010  0.22190  0.19700  Biso   1.000  C
  C6       1.0000 0.93990  0.72190  0.30300  Biso   1.000  C
  C7       1.0000 0.93990  0.77810  0.80300  Biso   1.000  C
  C8       1.0000 0.06010  0.27810  0.69700  Biso   1.000  C
  H9       1.0000 0.01960  0.18510  0.19880  Biso   1.000  H
  H10      1.0000 0.98040  0.68510  0.30120  Biso   1.000  H
  H11      1.0000 0.98040  0.81490  0.80120  Biso   1.000  H
  H12      1.0000 0.01960  0.31490  0.69880  Biso   1.000  H
  H13      1.0000 0.03550  0.23920  0.12650  Biso   1.000  H
  H14      1.0000 0.96450  0.73920  0.37350  Biso   1.000  H
  H15      1.0000 0.96450  0.76080  0.87350  Biso   1.000  H
  H16      1.0000 0.03550  0.26080  0.62650  Biso   1.000  H
  C9       1.0000 0.00990  0.25720  0.29240  Biso   1.000  C
  C10      1.0000 0.99010  0.75720  0.20760  Biso   1.000  C
  C11      1.0000 0.99010  0.74280  0.70760  Biso   1.000  C
  C12      1.0000 0.00990  0.24280  0.79240  Biso   1.000  C
  H17      1.0000 0.05280  0.24390  0.36090  Biso   1.000  H
  H18      1.0000 0.94720  0.74390  0.13910  Biso   1.000  H
  H19      1.0000 0.94720  0.75610  0.63910  Biso   1.000  H
  H20      1.0000 0.05280  0.25610  0.86090  Biso   1.000  H
  H21      1.0000 0.03950  0.29530  0.28160  Biso   1.000  H
  H22      1.0000 0.96050  0.79530  0.21840  Biso   1.000  H
  H23      1.0000 0.96050  0.70470  0.71840  Biso   1.000  H
  H24      1.0000 0.03950  0.20470  0.78160  Biso   1.000  H
  C13      1.0000 0.78120  0.28300  0.20850  Biso   1.000  C
  C14      1.0000 0.21880  0.78300  0.29150  Biso   1.000  C
  C15      1.0000 0.21880  0.71700  0.79150  Biso   1.000  C
  C16      1.0000 0.78120  0.21700  0.70850  Biso   1.000  C
  H25      1.0000 0.83180  0.31420  0.17950  Biso   1.000  H
  H26      1.0000 0.16820  0.81420  0.32050  Biso   1.000  H
  H27      1.0000 0.16820  0.68580  0.82050  Biso   1.000  H
  H28      1.0000 0.83180  0.18580  0.67950  Biso   1.000  H
  H29      1.0000 0.76860  0.25580  0.14960  Biso   1.000  H
  H30      1.0000 0.23140  0.75580  0.35040  Biso   1.000  H
  H31      1.0000 0.23140  0.74420  0.85040  Biso   1.000  H
  H32      1.0000 0.76860  0.24420  0.64960  Biso   1.000  H
  C17      1.0000 0.64420  0.30290  0.24560  Biso   1.000  C
  C18      1.0000 0.35580  0.80290  0.25440  Biso   1.000  C
  C19      1.0000 0.35580  0.69710  0.75440  Biso   1.000  C
  C20      1.0000 0.64420  0.19710  0.74560  Biso   1.000  C
  H33      1.0000 0.63660  0.31250  0.31980  Biso   1.000  H
  H34      1.0000 0.36340  0.81250  0.18020  Biso   1.000  H
  H35      1.0000 0.36340  0.68750  0.68020  Biso   1.000  H
  H36      1.0000 0.63660  0.18750  0.81980  Biso   1.000  H
  C21      1.0000 0.53260  0.30770  0.17930  Biso   1.000  C
  C22      1.0000 0.46740  0.80770  0.32070  Biso   1.000  C
  C23      1.0000 0.46740  0.69230  0.82070  Biso   1.000  C
  C24      1.0000 0.53260  0.19230  0.67930  Biso   1.000  C
  H37      1.0000 0.53640  0.29850  0.10450  Biso   1.000  H
  H38      1.0000 0.46360  0.79850  0.39550  Biso   1.000  H
  H39      1.0000 0.46360  0.70150  0.89550  Biso   1.000  H
  H40      1.0000 0.53640  0.20150  0.60450  Biso   1.000  H
  H41      1.0000 0.45140  0.32030  0.20800  Biso   1.000  H
  H42      1.0000 0.54860  0.82030  0.29200  Biso   1.000  H
  H43      1.0000 0.54860  0.67970  0.79200  Biso   1.000  H
  H44      1.0000 0.45140  0.17970  0.70800  Biso   1.000  H
  C25      1.0000 0.80620  0.20080  0.33510  Biso   1.000  C
  C26      1.0000 0.19380  0.70080  0.16490  Biso   1.000  C
  C27      1.0000 0.19380  0.79920  0.66490  Biso   1.000  C
  C28      1.0000 0.80620  0.29920  0.83510  Biso   1.000  C
  H45      1.0000 0.80060  0.17770  0.26920  Biso   1.000  H
  H46      1.0000 0.19940  0.67770  0.23080  Biso   1.000  H
  H47      1.0000 0.19940  0.82230  0.73080  Biso   1.000  H
  H48      1.0000 0.80060  0.32230  0.76920  Biso   1.000  H
  H49      1.0000 0.86900  0.18320  0.38790  Biso   1.000  H
  H50      1.0000 0.13100  0.68320  0.11210  Biso   1.000  H
  H51      1.0000 0.13100  0.81680  0.61210  Biso   1.000  H
  H52      1.0000 0.86900  0.31680  0.88790  Biso   1.000  H
  C29      1.0000 0.66990  0.20400  0.38390  Biso   1.000  C
  C30      1.0000 0.33010  0.70400  0.11610  Biso   1.000  C
  C31      1.0000 0.33010  0.79600  0.61610  Biso   1.000  C
  C32      1.0000 0.66990  0.29600  0.88390  Biso   1.000  C
  H53      1.0000 0.64930  0.23480  0.42690  Biso   1.000  H
  H54      1.0000 0.35070  0.73480  0.07310  Biso   1.000  H
  H55      1.0000 0.35070  0.76520  0.57310  Biso   1.000  H
  H56      1.0000 0.64930  0.26520  0.92690  Biso   1.000  H
  C33      1.0000 0.57310  0.16350  0.36830  Biso   1.000  C
  C34      1.0000 0.42690  0.66350  0.13170  Biso   1.000  C
  C35      1.0000 0.42690  0.83650  0.63170  Biso   1.000  C
  C36      1.0000 0.57310  0.33650  0.86830  Biso   1.000  C
  H57      1.0000 0.59160  0.13230  0.32560  Biso   1.000  H
  H58      1.0000 0.40840  0.63230  0.17440  Biso   1.000  H
  H59      1.0000 0.40840  0.86770  0.67440  Biso   1.000  H
  H60      1.0000 0.59160  0.36770  0.82560  Biso   1.000  H
  H61      1.0000 0.48880  0.16720  0.40050  Biso   1.000  H
  H62      1.0000 0.51120  0.66720  0.09950  Biso   1.000  H
  H63      1.0000 0.51120  0.83280  0.59950  Biso   1.000  H
  H64      1.0000 0.48880  0.33280  0.90050  Biso   1.000  H
  C37      1.0000 0.25420  0.52730  0.18590  Biso   1.000  C
  C38      1.0000 0.74580  0.02730  0.31410  Biso   1.000  C
  C39      1.0000 0.74580  0.47270  0.81410  Biso   1.000  C
  C40      1.0000 0.25420  0.97270  0.68590  Biso   1.000  C
  C41      1.0000 0.09580  0.53280  0.17960  Biso   1.000  C
  C42      1.0000 0.90420  0.03280  0.32040  Biso   1.000  C
  C43      1.0000 0.90420  0.46720  0.82040  Biso   1.000  C
  C44      1.0000 0.09580  0.96720  0.67960  Biso   1.000  C
  H65      1.0000 0.06580  0.56940  0.20230  Biso   1.000  H
  H66      1.0000 0.93420  0.06940  0.29770  Biso   1.000  H
  H67      1.0000 0.93420  0.43060  0.79770  Biso   1.000  H
  H68      1.0000 0.06580  0.93060  0.70230  Biso   1.000  H
  H69      1.0000 0.05840  0.52440  0.10610  Biso   1.000  H
  H70      1.0000 0.94160  0.02440  0.39390  Biso   1.000  H
  H71      1.0000 0.94160  0.47560  0.89390  Biso   1.000  H
  H72      1.0000 0.05840  0.97560  0.60610  Biso   1.000  H
  C45      1.0000 0.06190  0.48940  0.26100  Biso   1.000  C
  C46      1.0000 0.93810  0.98940  0.23900  Biso   1.000  C
  C47      1.0000 0.93810  0.51060  0.73900  Biso   1.000  C
  C48      1.0000 0.06190  0.01060  0.76100  Biso   1.000  C
  H73      1.0000 0.10020  0.49860  0.33380  Biso   1.000  H
  H74      1.0000 0.89980  0.99860  0.16620  Biso   1.000  H
  H75      1.0000 0.89980  0.50140  0.66620  Biso   1.000  H
  H76      1.0000 0.10020  0.00140  0.83380  Biso   1.000  H
  H77      1.0000 0.09670  0.45350  0.23860  Biso   1.000  H
  H78      1.0000 0.90330  0.95350  0.26140  Biso   1.000  H
  H79      1.0000 0.90330  0.54650  0.76140  Biso   1.000  H
  H80      1.0000 0.09670  0.04650  0.73860  Biso   1.000  H
  C49      1.0000 0.83740  0.54190  0.30610  Biso   1.000  C
  C50      1.0000 0.16260  0.04190  0.19390  Biso   1.000  C
  C51      1.0000 0.16260  0.45810  0.69390  Biso   1.000  C
  C52      1.0000 0.83740  0.95810  0.80610  Biso   1.000  C
  H81      1.0000 0.89840  0.55760  0.36250  Biso   1.000  H
  H82      1.0000 0.10160  0.05760  0.13750  Biso   1.000  H
  H83      1.0000 0.10160  0.44240  0.63750  Biso   1.000  H
  H84      1.0000 0.89840  0.94240  0.86250  Biso   1.000  H
  H85      1.0000 0.82910  0.56860  0.24590  Biso   1.000  H
  H86      1.0000 0.17090  0.06860  0.25410  Biso   1.000  H
  H87      1.0000 0.17090  0.43140  0.75410  Biso   1.000  H
  H88      1.0000 0.82910  0.93140  0.74590  Biso   1.000  H
  C53      1.0000 0.70240  0.53400  0.35360  Biso   1.000  C
  C54      1.0000 0.29760  0.03400  0.14640  Biso   1.000  C
  C55      1.0000 0.29760  0.46600  0.64640  Biso   1.000  C
  C56      1.0000 0.70240  0.96600  0.85360  Biso   1.000  C
  H89      1.0000 0.68980  0.50100  0.39250  Biso   1.000  H
  H90      1.0000 0.31020  0.00100  0.10750  Biso   1.000  H
  H91      1.0000 0.31020  0.49900  0.60750  Biso   1.000  H
  H92      1.0000 0.68980  0.99900  0.89250  Biso   1.000  H
  C57      1.0000 0.60380  0.56610  0.34780  Biso   1.000  C
  C58      1.0000 0.39620  0.06610  0.15220  Biso   1.000  C
  C59      1.0000 0.39620  0.43390  0.65220  Biso   1.000  C
  C60      1.0000 0.60380  0.93390  0.84780  Biso   1.000  C
  H93      1.0000 0.61050  0.59970  0.31000  Biso   1.000  H
  H94      1.0000 0.38950  0.09970  0.19000  Biso   1.000  H
  H95      1.0000 0.38950  0.40030  0.69000  Biso   1.000  H
  H96      1.0000 0.61050  0.90030  0.81000  Biso   1.000  H
  H97      1.0000 0.52310  0.55660  0.38130  Biso   1.000  H
  H98      1.0000 0.47690  0.05660  0.11870  Biso   1.000  H
  H99      1.0000 0.47690  0.44340  0.61870  Biso   1.000  H
  H100     1.0000 0.52310  0.94340  0.88130  Biso   1.000  H
  C61      1.0000 0.83280  0.47200  0.15370  Biso   1.000  C
  C62      1.0000 0.16720  0.97200  0.34630  Biso   1.000  C
  C63      1.0000 0.16720  0.52800  0.84630  Biso   1.000  C
  C64      1.0000 0.83280  0.02800  0.65370  Biso   1.000  C
  H101     1.0000 0.81950  0.50490  0.10780  Biso   1.000  H
  H102     1.0000 0.18050  0.00490  0.39220  Biso   1.000  H
  H103     1.0000 0.18050  0.49510  0.89220  Biso   1.000  H
  H104     1.0000 0.81950  0.99510  0.60780  Biso   1.000  H
  H105     1.0000 0.89180  0.44670  0.11510  Biso   1.000  H
  H106     1.0000 0.10820  0.94670  0.38490  Biso   1.000  H
  H107     1.0000 0.10820  0.55330  0.88490  Biso   1.000  H
  H108     1.0000 0.89180  0.05330  0.61510  Biso   1.000  H
  C65      1.0000 0.70000  0.44480  0.16930  Biso   1.000  C
  C66      1.0000 0.30000  0.94480  0.33070  Biso   1.000  C
  C67      1.0000 0.30000  0.55520  0.83070  Biso   1.000  C
  C68      1.0000 0.70000  0.05520  0.66930  Biso   1.000  C
  H109     1.0000 0.69060  0.42290  0.23210  Biso   1.000  H
  H110     1.0000 0.30940  0.92290  0.26790  Biso   1.000  H
  H111     1.0000 0.30940  0.57710  0.76790  Biso   1.000  H
  H112     1.0000 0.69060  0.07710  0.73210  Biso   1.000  H
  C69      1.0000 0.59370  0.44950  0.10040  Biso   1.000  C
  C70      1.0000 0.40630  0.94950  0.39960  Biso   1.000  C
  C71      1.0000 0.40630  0.55050  0.89960  Biso   1.000  C
  C72      1.0000 0.59370  0.05050  0.60040  Biso   1.000  C
  H113     1.0000 0.59940  0.47120  0.03680  Biso   1.000  H
  H114     1.0000 0.40060  0.97120  0.46320  Biso   1.000  H
  H115     1.0000 0.40060  0.52880  0.96320  Biso   1.000  H
  H116     1.0000 0.59940  0.02880  0.53680  Biso   1.000  H
  H117     1.0000 0.51300  0.43120  0.11550  Biso   1.000  H
  H118     1.0000 0.48700  0.93120  0.38450  Biso   1.000  H
  H119     1.0000 0.48700  0.56880  0.88450  Biso   1.000  H
  H120     1.0000 0.51300  0.06880  0.61550  Biso   1.000  H
  H121     1.0000 0.59560  0.14900  0.08990  Biso   1.000  H
  H122     1.0000 0.40440  0.64900  0.41010  Biso   1.000  H
  H123     1.0000 0.40440  0.85100  0.91010  Biso   1.000  H
  H124     1.0000 0.59560  0.35100  0.58990  Biso   1.000  H
  H125     1.0000 0.34310  0.30710  0.42100  Biso   1.000  H
  H126     1.0000 0.65690  0.80710  0.07900  Biso   1.000  H
  H127     1.0000 0.65690  0.69290  0.57900  Biso   1.000  H
  H128     1.0000 0.34310  0.19290  0.92100  Biso   1.000  H
  H129     1.0000 0.20140  0.38180  0.43400  Biso   1.000  H
  H130     1.0000 0.79860  0.88180  0.06600  Biso   1.000  H
  H131     1.0000 0.79860  0.61820  0.56600  Biso   1.000  H
  H132     1.0000 0.20140  0.11820  0.93400  Biso   1.000  H
  H133     1.0000 0.39730  0.41700  0.34900  Biso   1.000  H
  H134     1.0000 0.60270  0.91700  0.15100  Biso   1.000  H
  H135     1.0000 0.60270  0.58300  0.65100  Biso   1.000  H
  H136     1.0000 0.39730  0.08300  0.84900  Biso   1.000  H
  H137     1.0000 0.50120  0.19730  0.05140  Biso   1.000  H
  H138     1.0000 0.49880  0.69730  0.44860  Biso   1.000  H
  H139     1.0000 0.49880  0.80270  0.94860  Biso   1.000  H
  H140     1.0000 0.50120  0.30270  0.55140  Biso   1.000  H
  H141     1.0000 0.33000  0.26000  0.47000  Biso   1.000  H
  H142     1.0000 0.67000  0.76000  0.03000  Biso   1.000  H
  H143     1.0000 0.67000  0.74000  0.53000  Biso   1.000  H
  H144     1.0000 0.33000  0.24000  0.97000  Biso   1.000  H
  H145     1.0000 0.20180  0.36570  0.30620  Biso   1.000  H
  H146     1.0000 0.79820  0.86570  0.19380  Biso   1.000  H
  H147     1.0000 0.79820  0.63430  0.69380  Biso   1.000  H
  H148     1.0000 0.20180  0.13430  0.80620  Biso   1.000  H
  H149     1.0000 0.55150  0.41190  0.37470  Biso   1.000  H
  H150     1.0000 0.44850  0.91190  0.12530  Biso   1.000  H
  H151     1.0000 0.44850  0.58810  0.62530  Biso   1.000  H
  H152     1.0000 0.55150  0.08810  0.87470  Biso   1.000  H
