data_image0
_cell_length_a       18.3578
_cell_length_b       9.87
_cell_length_c       20.9094
_cell_angle_alpha    90
_cell_angle_beta     106.883
_cell_angle_gamma    90

_symmetry_space_group_name_H-M    "P 1"
_symmetry_int_tables_number       1

loop_
  _symmetry_equiv_pos_as_xyz
  'x, y, z'

loop_
  _atom_site_label
  _atom_site_occupancy
  _atom_site_fract_x
  _atom_site_fract_y
  _atom_site_fract_z
  _atom_site_thermal_displace_type
  _atom_site_B_iso_or_equiv
  _atom_site_type_symbol
  Cu1      1.0000 0.22172  0.17290  0.14039  Biso   1.000  Cu
  Cu2      1.0000 0.77828  0.17290  0.35961  Biso   1.000  Cu
  Cu3      1.0000 0.72172  0.67290  0.14039  Biso   1.000  Cu
  Cu4      1.0000 0.27828  0.67290  0.35961  Biso   1.000  Cu
  Cu5      1.0000 0.77828  0.82710  0.85961  Biso   1.000  Cu
  Cu6      1.0000 0.22172  0.82710  0.64039  Biso   1.000  Cu
  Cu7      1.0000 0.27828  0.32710  0.85961  Biso   1.000  Cu
  Cu8      1.0000 0.72172  0.32710  0.64039  Biso   1.000  Cu
  O1       1.0000 0.27639  0.09890  0.24939  Biso   1.000  O
  O2       1.0000 0.72361  0.09890  0.25061  Biso   1.000  O
  O3       1.0000 0.77639  0.59890  0.24939  Biso   1.000  O
  O4       1.0000 0.22361  0.59890  0.25061  Biso   1.000  O
  O5       1.0000 0.72361  0.90110  0.75061  Biso   1.000  O
  O6       1.0000 0.27639  0.90110  0.74939  Biso   1.000  O
  O7       1.0000 0.22361  0.40110  0.75061  Biso   1.000  O
  O8       1.0000 0.77639  0.40110  0.74939  Biso   1.000  O
  O9       1.0000 0.29280  0.31100  0.12700  Biso   1.000  O
  O10      1.0000 0.70720  0.31100  0.37300  Biso   1.000  O
  O11      1.0000 0.79280  0.81100  0.12700  Biso   1.000  O
  O12      1.0000 0.20720  0.81100  0.37300  Biso   1.000  O
  O13      1.0000 0.70720  0.68900  0.87300  Biso   1.000  O
  O14      1.0000 0.29280  0.68900  0.62700  Biso   1.000  O
  O15      1.0000 0.20720  0.18900  0.87300  Biso   1.000  O
  O16      1.0000 0.79280  0.18900  0.62700  Biso   1.000  O
  O17      1.0000 0.40170  0.20670  0.17550  Biso   1.000  O
  O18      1.0000 0.59830  0.20670  0.32450  Biso   1.000  O
  O19      1.0000 0.90170  0.70670  0.17550  Biso   1.000  O
  O20      1.0000 0.09830  0.70670  0.32450  Biso   1.000  O
  O21      1.0000 0.59830  0.79330  0.82450  Biso   1.000  O
  O22      1.0000 0.40170  0.79330  0.67550  Biso   1.000  O
  O23      1.0000 0.09830  0.29330  0.82450  Biso   1.000  O
  O24      1.0000 0.90170  0.29330  0.67550  Biso   1.000  O
  N1       1.0000 0.35610  0.80310  0.34210  Biso   1.000  N
  N2       1.0000 0.64390  0.80310  0.15790  Biso   1.000  N
  N3       1.0000 0.85610  0.30310  0.34210  Biso   1.000  N
  N4       1.0000 0.14390  0.30310  0.15790  Biso   1.000  N
  N5       1.0000 0.64390  0.19690  0.65790  Biso   1.000  N
  N6       1.0000 0.35610  0.19690  0.84210  Biso   1.000  N
  N7       1.0000 0.14390  0.69690  0.65790  Biso   1.000  N
  N8       1.0000 0.85610  0.69690  0.84210  Biso   1.000  N
  N9       1.0000 0.42320  0.78870  0.38560  Biso   1.000  N
  N10      1.0000 0.57680  0.78870  0.11440  Biso   1.000  N
  N11      1.0000 0.92320  0.28870  0.38560  Biso   1.000  N
  N12      1.0000 0.07680  0.28870  0.11440  Biso   1.000  N
  N13      1.0000 0.57680  0.21130  0.61440  Biso   1.000  N
  N14      1.0000 0.42320  0.21130  0.88560  Biso   1.000  N
  N15      1.0000 0.07680  0.71130  0.61440  Biso   1.000  N
  N16      1.0000 0.92320  0.71130  0.88560  Biso   1.000  N
  N17      1.0000 0.46300  0.90370  0.38010  Biso   1.000  N
  N18      1.0000 0.53700  0.90370  0.11990  Biso   1.000  N
  N19      1.0000 0.96300  0.40370  0.38010  Biso   1.000  N
  N20      1.0000 0.03700  0.40370  0.11990  Biso   1.000  N
  N21      1.0000 0.53700  0.09630  0.61990  Biso   1.000  N
  N22      1.0000 0.46300  0.09630  0.88010  Biso   1.000  N
  N23      1.0000 0.03700  0.59630  0.61990  Biso   1.000  N
  N24      1.0000 0.96300  0.59630  0.88010  Biso   1.000  N
  N25      1.0000 0.44440  0.10730  0.31530  Biso   1.000  N
  N26      1.0000 0.55560  0.10730  0.18470  Biso   1.000  N
  N27      1.0000 0.94440  0.60730  0.31530  Biso   1.000  N
  N28      1.0000 0.05560  0.60730  0.18470  Biso   1.000  N
  N29      1.0000 0.55560  0.89270  0.68470  Biso   1.000  N
  N30      1.0000 0.44440  0.89270  0.81530  Biso   1.000  N
  N31      1.0000 0.05560  0.39270  0.68470  Biso   1.000  N
  N32      1.0000 0.94440  0.39270  0.81530  Biso   1.000  N
  N33      1.0000 0.23190  0.88600  0.22630  Biso   1.000  N
  N34      1.0000 0.76810  0.88600  0.27370  Biso   1.000  N
  N35      1.0000 0.73190  0.38600  0.22630  Biso   1.000  N
  N36      1.0000 0.26810  0.38600  0.27370  Biso   1.000  N
  N37      1.0000 0.76810  0.11400  0.77370  Biso   1.000  N
  N38      1.0000 0.23190  0.11400  0.72630  Biso   1.000  N
  N39      1.0000 0.26810  0.61400  0.77370  Biso   1.000  N
  N40      1.0000 0.73190  0.61400  0.72630  Biso   1.000  N
  H1       1.0000 0.23480  0.79700  0.22550  Biso   1.000  H
  H2       1.0000 0.76520  0.79700  0.27450  Biso   1.000  H
  H3       1.0000 0.73480  0.29700  0.22550  Biso   1.000  H
  H4       1.0000 0.26520  0.29700  0.27450  Biso   1.000  H
  H5       1.0000 0.76520  0.20300  0.77450  Biso   1.000  H
  H6       1.0000 0.23480  0.20300  0.72550  Biso   1.000  H
  H7       1.0000 0.26520  0.70300  0.77450  Biso   1.000  H
  H8       1.0000 0.73480  0.70300  0.72550  Biso   1.000  H
  C1       1.0000 0.22760  0.99350  0.09550  Biso   1.000  C
  C2       1.0000 0.77240  0.99350  0.40450  Biso   1.000  C
  C3       1.0000 0.72760  0.49350  0.09550  Biso   1.000  C
  C4       1.0000 0.27240  0.49350  0.40450  Biso   1.000  C
  C5       1.0000 0.77240  0.00650  0.90450  Biso   1.000  C
  C6       1.0000 0.22760  0.00650  0.59550  Biso   1.000  C
  C7       1.0000 0.27240  0.50650  0.90450  Biso   1.000  C
  C8       1.0000 0.72760  0.50650  0.59550  Biso   1.000  C
  H9       1.0000 0.27210  0.95050  0.12000  Biso   1.000  H
  H10      1.0000 0.72790  0.95050  0.38000  Biso   1.000  H
  H11      1.0000 0.77210  0.45050  0.12000  Biso   1.000  H
  H12      1.0000 0.22790  0.45050  0.38000  Biso   1.000  H
  H13      1.0000 0.72790  0.04950  0.88000  Biso   1.000  H
  H14      1.0000 0.27210  0.04950  0.62000  Biso   1.000  H
  H15      1.0000 0.22790  0.54950  0.88000  Biso   1.000  H
  H16      1.0000 0.77210  0.54950  0.62000  Biso   1.000  H
  H17      1.0000 0.22580  0.03670  0.05550  Biso   1.000  H
  H18      1.0000 0.77420  0.03670  0.44450  Biso   1.000  H
  H19      1.0000 0.72580  0.53670  0.05550  Biso   1.000  H
  H20      1.0000 0.27420  0.53670  0.44450  Biso   1.000  H
  H21      1.0000 0.77420  0.96330  0.94450  Biso   1.000  H
  H22      1.0000 0.22580  0.96330  0.55550  Biso   1.000  H
  H23      1.0000 0.27420  0.46330  0.94450  Biso   1.000  H
  H24      1.0000 0.72580  0.46330  0.55550  Biso   1.000  H
  C9       1.0000 0.16610  0.99330  0.11760  Biso   1.000  C
  C10      1.0000 0.83390  0.99330  0.38240  Biso   1.000  C
  C11      1.0000 0.66610  0.49330  0.11760  Biso   1.000  C
  C12      1.0000 0.33390  0.49330  0.38240  Biso   1.000  C
  C13      1.0000 0.83390  0.00670  0.88240  Biso   1.000  C
  C14      1.0000 0.16610  0.00670  0.61760  Biso   1.000  C
  C15      1.0000 0.33390  0.50670  0.88240  Biso   1.000  C
  C16      1.0000 0.66610  0.50670  0.61760  Biso   1.000  C
  H25      1.0000 0.12310  0.03760  0.09130  Biso   1.000  H
  H26      1.0000 0.87690  0.03760  0.40870  Biso   1.000  H
  H27      1.0000 0.62310  0.53760  0.09130  Biso   1.000  H
  H28      1.0000 0.37690  0.53760  0.40870  Biso   1.000  H
  H29      1.0000 0.87690  0.96240  0.90870  Biso   1.000  H
  H30      1.0000 0.12310  0.96240  0.59130  Biso   1.000  H
  H31      1.0000 0.37690  0.46240  0.90870  Biso   1.000  H
  H32      1.0000 0.62310  0.46240  0.59130  Biso   1.000  H
  C17      1.0000 0.15970  0.92810  0.18070  Biso   1.000  C
  C18      1.0000 0.84030  0.92810  0.31930  Biso   1.000  C
  C19      1.0000 0.65970  0.42810  0.18070  Biso   1.000  C
  C20      1.0000 0.34030  0.42810  0.31930  Biso   1.000  C
  C21      1.0000 0.84030  0.07190  0.81930  Biso   1.000  C
  C22      1.0000 0.15970  0.07190  0.68070  Biso   1.000  C
  C23      1.0000 0.34030  0.57190  0.81930  Biso   1.000  C
  C24      1.0000 0.65970  0.57190  0.68070  Biso   1.000  C
  H33      1.0000 0.13560  0.99150  0.20360  Biso   1.000  H
  H34      1.0000 0.86440  0.99150  0.29640  Biso   1.000  H
  H35      1.0000 0.63560  0.49150  0.20360  Biso   1.000  H
  H36      1.0000 0.36440  0.49150  0.29640  Biso   1.000  H
  H37      1.0000 0.86440  0.00850  0.79640  Biso   1.000  H
  H38      1.0000 0.13560  0.00850  0.70360  Biso   1.000  H
  H39      1.0000 0.36440  0.50850  0.79640  Biso   1.000  H
  H40      1.0000 0.63560  0.50850  0.70360  Biso   1.000  H
  H41      1.0000 0.12680  0.84940  0.16890  Biso   1.000  H
  H42      1.0000 0.87320  0.84940  0.33110  Biso   1.000  H
  H43      1.0000 0.62680  0.34940  0.16890  Biso   1.000  H
  H44      1.0000 0.37320  0.34940  0.33110  Biso   1.000  H
  H45      1.0000 0.87320  0.15060  0.83110  Biso   1.000  H
  H46      1.0000 0.12680  0.15060  0.66890  Biso   1.000  H
  H47      1.0000 0.37320  0.65060  0.83110  Biso   1.000  H
  H48      1.0000 0.62680  0.65060  0.66890  Biso   1.000  H
  C25      1.0000 0.28360  0.97490  0.25970  Biso   1.000  C
  C26      1.0000 0.71640  0.97490  0.24030  Biso   1.000  C
  C27      1.0000 0.78360  0.47490  0.25970  Biso   1.000  C
  C28      1.0000 0.21640  0.47490  0.24030  Biso   1.000  C
  C29      1.0000 0.71640  0.02510  0.74030  Biso   1.000  C
  C30      1.0000 0.28360  0.02510  0.75970  Biso   1.000  C
  C31      1.0000 0.21640  0.52510  0.74030  Biso   1.000  C
  C32      1.0000 0.78360  0.52510  0.75970  Biso   1.000  C
  C33      1.0000 0.35080  0.92290  0.30900  Biso   1.000  C
  C34      1.0000 0.64920  0.92290  0.19100  Biso   1.000  C
  C35      1.0000 0.85080  0.42290  0.30900  Biso   1.000  C
  C36      1.0000 0.14920  0.42290  0.19100  Biso   1.000  C
  C37      1.0000 0.64920  0.07710  0.69100  Biso   1.000  C
  C38      1.0000 0.35080  0.07710  0.80900  Biso   1.000  C
  C39      1.0000 0.14920  0.57710  0.69100  Biso   1.000  C
  C40      1.0000 0.85080  0.57710  0.80900  Biso   1.000  C
  C41      1.0000 0.42140  0.98800  0.33350  Biso   1.000  C
  C42      1.0000 0.57860  0.98800  0.16650  Biso   1.000  C
  C43      1.0000 0.92140  0.48800  0.33350  Biso   1.000  C
  C44      1.0000 0.07860  0.48800  0.16650  Biso   1.000  C
  C45      1.0000 0.57860  0.01200  0.66650  Biso   1.000  C
  C46      1.0000 0.42140  0.01200  0.83350  Biso   1.000  C
  C47      1.0000 0.07860  0.51200  0.66650  Biso   1.000  C
  C48      1.0000 0.92140  0.51200  0.83350  Biso   1.000  C
  C49      1.0000 0.53690  0.91940  0.42690  Biso   1.000  C
  C50      1.0000 0.46310  0.91940  0.07310  Biso   1.000  C
  C51      1.0000 0.03690  0.41940  0.42690  Biso   1.000  C
  C52      1.0000 0.96310  0.41940  0.07310  Biso   1.000  C
  C53      1.0000 0.46310  0.08060  0.57310  Biso   1.000  C
  C54      1.0000 0.53690  0.08060  0.92690  Biso   1.000  C
  C55      1.0000 0.96310  0.58060  0.57310  Biso   1.000  C
  C56      1.0000 0.03690  0.58060  0.92690  Biso   1.000  C
  C57      1.0000 0.58020  0.80680  0.44900  Biso   1.000  C
  C58      1.0000 0.41980  0.80680  0.05100  Biso   1.000  C
  C59      1.0000 0.08020  0.30680  0.44900  Biso   1.000  C
  C60      1.0000 0.91980  0.30680  0.05100  Biso   1.000  C
  C61      1.0000 0.41980  0.19320  0.55100  Biso   1.000  C
  C62      1.0000 0.58020  0.19320  0.94900  Biso   1.000  C
  C63      1.0000 0.91980  0.69320  0.55100  Biso   1.000  C
  C64      1.0000 0.08020  0.69320  0.94900  Biso   1.000  C
  H49      1.0000 0.56350  0.72190  0.43150  Biso   1.000  H
  H50      1.0000 0.43650  0.72190  0.06850  Biso   1.000  H
  H51      1.0000 0.06350  0.22190  0.43150  Biso   1.000  H
  H52      1.0000 0.93650  0.22190  0.06850  Biso   1.000  H
  H53      1.0000 0.43650  0.27810  0.56850  Biso   1.000  H
  H54      1.0000 0.56350  0.27810  0.93150  Biso   1.000  H
  H55      1.0000 0.93650  0.77810  0.56850  Biso   1.000  H
  H56      1.0000 0.06350  0.77810  0.93150  Biso   1.000  H
  C65      1.0000 0.64930  0.82080  0.49790  Biso   1.000  C
  C66      1.0000 0.35070  0.82080  0.00210  Biso   1.000  C
  C67      1.0000 0.14930  0.32080  0.49790  Biso   1.000  C
  C68      1.0000 0.85070  0.32080  0.00210  Biso   1.000  C
  C69      1.0000 0.35070  0.17920  0.50210  Biso   1.000  C
  C70      1.0000 0.64930  0.17920  0.99790  Biso   1.000  C
  C71      1.0000 0.85070  0.67920  0.50210  Biso   1.000  C
  C72      1.0000 0.14930  0.67920  0.99790  Biso   1.000  C
  H57      1.0000 0.67950  0.74500  0.51300  Biso   1.000  H
  H58      1.0000 0.32050  0.74500  0.98700  Biso   1.000  H
  H59      1.0000 0.17950  0.24500  0.51300  Biso   1.000  H
  H60      1.0000 0.82050  0.24500  0.98700  Biso   1.000  H
  H61      1.0000 0.32050  0.25500  0.48700  Biso   1.000  H
  H62      1.0000 0.67950  0.25500  0.01300  Biso   1.000  H
  H63      1.0000 0.82050  0.75500  0.48700  Biso   1.000  H
  H64      1.0000 0.17950  0.75500  0.01300  Biso   1.000  H
  C73      1.0000 0.67360  0.94620  0.52410  Biso   1.000  C
  C74      1.0000 0.32640  0.94620  0.97590  Biso   1.000  C
  C75      1.0000 0.17360  0.44620  0.52410  Biso   1.000  C
  C76      1.0000 0.82640  0.44620  0.97590  Biso   1.000  C
  C77      1.0000 0.32640  0.05380  0.47590  Biso   1.000  C
  C78      1.0000 0.67360  0.05380  0.02410  Biso   1.000  C
  C79      1.0000 0.82640  0.55380  0.47590  Biso   1.000  C
  C80      1.0000 0.17360  0.55380  0.02410  Biso   1.000  C
  H65      1.0000 0.71930  0.95450  0.55780  Biso   1.000  H
  H66      1.0000 0.28070  0.95450  0.94220  Biso   1.000  H
  H67      1.0000 0.21930  0.45450  0.55780  Biso   1.000  H
  H68      1.0000 0.78070  0.45450  0.94220  Biso   1.000  H
  H69      1.0000 0.28070  0.04550  0.44220  Biso   1.000  H
  H70      1.0000 0.71930  0.04550  0.05780  Biso   1.000  H
  H71      1.0000 0.78070  0.54550  0.44220  Biso   1.000  H
  H72      1.0000 0.21930  0.54550  0.05780  Biso   1.000  H
  C81      1.0000 0.63100  0.05800  0.50080  Biso   1.000  C
  C82      1.0000 0.36900  0.05800  0.99920  Biso   1.000  C
  C83      1.0000 0.13100  0.55800  0.50080  Biso   1.000  C
  C84      1.0000 0.86900  0.55800  0.99920  Biso   1.000  C
  C85      1.0000 0.36900  0.94200  0.49920  Biso   1.000  C
  C86      1.0000 0.63100  0.94200  0.00080  Biso   1.000  C
  C87      1.0000 0.86900  0.44200  0.49920  Biso   1.000  C
  C88      1.0000 0.13100  0.44200  0.00080  Biso   1.000  C
  H73      1.0000 0.64880  0.14330  0.51690  Biso   1.000  H
  H74      1.0000 0.35120  0.14330  0.98310  Biso   1.000  H
  H75      1.0000 0.14880  0.64330  0.51690  Biso   1.000  H
  H76      1.0000 0.85120  0.64330  0.98310  Biso   1.000  H
  H77      1.0000 0.35120  0.85670  0.48310  Biso   1.000  H
  H78      1.0000 0.64880  0.85670  0.01690  Biso   1.000  H
  H79      1.0000 0.85120  0.35670  0.48310  Biso   1.000  H
  H80      1.0000 0.14880  0.35670  0.01690  Biso   1.000  H
  C89      1.0000 0.56140  0.04470  0.45320  Biso   1.000  C
  C90      1.0000 0.43860  0.04470  0.04680  Biso   1.000  C
  C91      1.0000 0.06140  0.54470  0.45320  Biso   1.000  C
  C92      1.0000 0.93860  0.54470  0.04680  Biso   1.000  C
  C93      1.0000 0.43860  0.95530  0.54680  Biso   1.000  C
  C94      1.0000 0.56140  0.95530  0.95320  Biso   1.000  C
  C95      1.0000 0.93860  0.45530  0.54680  Biso   1.000  C
  C96      1.0000 0.06140  0.45530  0.95320  Biso   1.000  C
  H81      1.0000 0.53100  0.12060  0.43880  Biso   1.000  H
  H82      1.0000 0.46900  0.12060  0.06120  Biso   1.000  H
  H83      1.0000 0.03100  0.62060  0.43880  Biso   1.000  H
  H84      1.0000 0.96900  0.62060  0.06120  Biso   1.000  H
  H85      1.0000 0.46900  0.87940  0.56120  Biso   1.000  H
  H86      1.0000 0.53100  0.87940  0.93880  Biso   1.000  H
  H87      1.0000 0.96900  0.37940  0.56120  Biso   1.000  H
  H88      1.0000 0.03100  0.37940  0.93880  Biso   1.000  H
  C97      1.0000 0.36380  0.29850  0.14600  Biso   1.000  C
  C98      1.0000 0.63620  0.29850  0.35400  Biso   1.000  C
  C99      1.0000 0.86380  0.79850  0.14600  Biso   1.000  C
  C100     1.0000 0.13620  0.79850  0.35400  Biso   1.000  C
  C101     1.0000 0.63620  0.70150  0.85400  Biso   1.000  C
  C102     1.0000 0.36380  0.70150  0.64600  Biso   1.000  C
  C103     1.0000 0.13620  0.20150  0.85400  Biso   1.000  C
  C104     1.0000 0.86380  0.20150  0.64600  Biso   1.000  C
  C105     1.0000 0.40570  0.41730  0.12610  Biso   1.000  C
  C106     1.0000 0.59430  0.41730  0.37390  Biso   1.000  C
  C107     1.0000 0.90570  0.91730  0.12610  Biso   1.000  C
  C108     1.0000 0.09430  0.91730  0.37390  Biso   1.000  C
  C109     1.0000 0.59430  0.58270  0.87390  Biso   1.000  C
  C110     1.0000 0.40570  0.58270  0.62610  Biso   1.000  C
  C111     1.0000 0.09430  0.08270  0.87390  Biso   1.000  C
  C112     1.0000 0.90570  0.08270  0.62610  Biso   1.000  C
  F1       1.0000 0.47380  0.39300  0.12560  Biso   1.000  F
  F2       1.0000 0.52620  0.39300  0.37440  Biso   1.000  F
  F3       1.0000 0.97380  0.89300  0.12560  Biso   1.000  F
  F4       1.0000 0.02620  0.89300  0.37440  Biso   1.000  F
  F5       1.0000 0.52620  0.60700  0.87440  Biso   1.000  F
  F6       1.0000 0.47380  0.60700  0.62560  Biso   1.000  F
  F7       1.0000 0.02620  0.10700  0.87440  Biso   1.000  F
  F8       1.0000 0.97380  0.10700  0.62560  Biso   1.000  F
  F9       1.0000 0.39840  0.52870  0.16640  Biso   1.000  F
  F10      1.0000 0.60160  0.52870  0.33360  Biso   1.000  F
  F11      1.0000 0.89840  0.02870  0.16640  Biso   1.000  F
  F12      1.0000 0.10160  0.02870  0.33360  Biso   1.000  F
  F13      1.0000 0.60160  0.47130  0.83360  Biso   1.000  F
  F14      1.0000 0.39840  0.47130  0.66640  Biso   1.000  F
  F15      1.0000 0.10160  0.97130  0.83360  Biso   1.000  F
  F16      1.0000 0.89840  0.97130  0.66640  Biso   1.000  F
  F17      1.0000 0.37270  0.47390  0.06840  Biso   1.000  F
  F18      1.0000 0.62730  0.47390  0.43160  Biso   1.000  F
  F19      1.0000 0.87270  0.97390  0.06840  Biso   1.000  F
  F20      1.0000 0.12730  0.97390  0.43160  Biso   1.000  F
  F21      1.0000 0.62730  0.52610  0.93160  Biso   1.000  F
  F22      1.0000 0.37270  0.52610  0.56840  Biso   1.000  F
  F23      1.0000 0.12730  0.02610  0.93160  Biso   1.000  F
  F24      1.0000 0.87270  0.02610  0.56840  Biso   1.000  F
  H89      1.0000 0.48940  0.14100  0.33200  Biso   1.000  H
  H90      1.0000 0.51060  0.14100  0.16800  Biso   1.000  H
  H91      1.0000 0.98940  0.64100  0.33200  Biso   1.000  H
  H92      1.0000 0.01060  0.64100  0.16800  Biso   1.000  H
  H93      1.0000 0.51060  0.85900  0.66800  Biso   1.000  H
  H94      1.0000 0.48940  0.85900  0.83200  Biso   1.000  H
  H95      1.0000 0.01060  0.35900  0.66800  Biso   1.000  H
  H96      1.0000 0.98940  0.35900  0.83200  Biso   1.000  H
  H97      1.0000 0.42000  0.14800  0.27830  Biso   1.000  H
  H98      1.0000 0.58000  0.14800  0.22170  Biso   1.000  H
  H99      1.0000 0.92000  0.64800  0.27830  Biso   1.000  H
  H100     1.0000 0.08000  0.64800  0.22170  Biso   1.000  H
  H101     1.0000 0.58000  0.85200  0.72170  Biso   1.000  H
  H102     1.0000 0.42000  0.85200  0.77830  Biso   1.000  H
  H103     1.0000 0.08000  0.35200  0.72170  Biso   1.000  H
  H104     1.0000 0.92000  0.35200  0.77830  Biso   1.000  H
  F25      1.0000 0.47230  0.44050  0.16640  Biso   1.000  F
  F26      1.0000 0.52770  0.44050  0.33360  Biso   1.000  F
  F27      1.0000 0.97230  0.94050  0.16640  Biso   1.000  F
  F28      1.0000 0.02770  0.94050  0.33360  Biso   1.000  F
  F29      1.0000 0.52770  0.55950  0.83360  Biso   1.000  F
  F30      1.0000 0.47230  0.55950  0.66640  Biso   1.000  F
  F31      1.0000 0.02770  0.05950  0.83360  Biso   1.000  F
  F32      1.0000 0.97230  0.05950  0.66640  Biso   1.000  F
  F33      1.0000 0.37060  0.53030  0.11950  Biso   1.000  F
  F34      1.0000 0.62940  0.53030  0.38050  Biso   1.000  F
  F35      1.0000 0.87060  0.03030  0.11950  Biso   1.000  F
  F36      1.0000 0.12940  0.03030  0.38050  Biso   1.000  F
  F37      1.0000 0.62940  0.46970  0.88050  Biso   1.000  F
  F38      1.0000 0.37060  0.46970  0.61950  Biso   1.000  F
  F39      1.0000 0.12940  0.96970  0.88050  Biso   1.000  F
  F40      1.0000 0.87060  0.96970  0.61950  Biso   1.000  F
  F41      1.0000 0.40640  0.39560  0.06050  Biso   1.000  F
  F42      1.0000 0.59360  0.39560  0.43950  Biso   1.000  F
  F43      1.0000 0.90640  0.89560  0.06050  Biso   1.000  F
  F44      1.0000 0.09360  0.89560  0.43950  Biso   1.000  F
  F45      1.0000 0.59360  0.60440  0.93950  Biso   1.000  F
  F46      1.0000 0.40640  0.60440  0.56050  Biso   1.000  F
  F47      1.0000 0.09360  0.10440  0.93950  Biso   1.000  F
  F48      1.0000 0.90640  0.10440  0.56050  Biso   1.000  F
