data_image0
_cell_length_a       21.3976
_cell_length_b       8.0335
_cell_length_c       18.6027
_cell_angle_alpha    90
_cell_angle_beta     114.422
_cell_angle_gamma    90

_symmetry_space_group_name_H-M    "P 1"
_symmetry_int_tables_number       1

loop_
  _symmetry_equiv_pos_as_xyz
  'x, y, z'

loop_
  _atom_site_label
  _atom_site_occupancy
  _atom_site_fract_x
  _atom_site_fract_y
  _atom_site_fract_z
  _atom_site_thermal_displace_type
  _atom_site_B_iso_or_equiv
  _atom_site_type_symbol
  Cu1      1.0000 0.11924  0.21201  0.00772  Biso   1.000  Cu
  Cu2      1.0000 0.88076  0.21201  0.49228  Biso   1.000  Cu
  Cu3      1.0000 0.61924  0.71201  0.00772  Biso   1.000  Cu
  Cu4      1.0000 0.38076  0.71201  0.49228  Biso   1.000  Cu
  Cu5      1.0000 0.88076  0.78799  0.99228  Biso   1.000  Cu
  Cu6      1.0000 0.11924  0.78799  0.50772  Biso   1.000  Cu
  Cu7      1.0000 0.38076  0.28799  0.99228  Biso   1.000  Cu
  Cu8      1.0000 0.61924  0.28799  0.50772  Biso   1.000  Cu
  O1       1.0000 0.17519  0.99060  0.01253  Biso   1.000  O
  O2       1.0000 0.82481  0.99060  0.48747  Biso   1.000  O
  O3       1.0000 0.67519  0.49060  0.01253  Biso   1.000  O
  O4       1.0000 0.32481  0.49060  0.48747  Biso   1.000  O
  O5       1.0000 0.82481  0.00940  0.98747  Biso   1.000  O
  O6       1.0000 0.17519  0.00940  0.51253  Biso   1.000  O
  O7       1.0000 0.32481  0.50940  0.98747  Biso   1.000  O
  O8       1.0000 0.67519  0.50940  0.51253  Biso   1.000  O
  O9       1.0000 0.13594  0.17560  0.12929  Biso   1.000  O
  O10      1.0000 0.86406  0.17560  0.37071  Biso   1.000  O
  O11      1.0000 0.63594  0.67560  0.12929  Biso   1.000  O
  O12      1.0000 0.36406  0.67560  0.37071  Biso   1.000  O
  O13      1.0000 0.86406  0.82440  0.87071  Biso   1.000  O
  O14      1.0000 0.13594  0.82440  0.62929  Biso   1.000  O
  O15      1.0000 0.36406  0.32440  0.87071  Biso   1.000  O
  O16      1.0000 0.63594  0.32440  0.62929  Biso   1.000  O
  O17      1.0000 0.10185  0.23760  0.22080  Biso   1.000  O
  O18      1.0000 0.89815  0.23760  0.27920  Biso   1.000  O
  O19      1.0000 0.60185  0.73760  0.22080  Biso   1.000  O
  O20      1.0000 0.39815  0.73760  0.27920  Biso   1.000  O
  O21      1.0000 0.89815  0.76240  0.77920  Biso   1.000  O
  O22      1.0000 0.10185  0.76240  0.72080  Biso   1.000  O
  O23      1.0000 0.39815  0.26240  0.77920  Biso   1.000  O
  O24      1.0000 0.60185  0.26240  0.72080  Biso   1.000  O
  O25      1.0000 0.04349  0.31770  0.10094  Biso   1.000  O
  O26      1.0000 0.95651  0.31770  0.39906  Biso   1.000  O
  O27      1.0000 0.54349  0.81770  0.10094  Biso   1.000  O
  O28      1.0000 0.45651  0.81770  0.39906  Biso   1.000  O
  O29      1.0000 0.95651  0.68230  0.89906  Biso   1.000  O
  O30      1.0000 0.04349  0.68230  0.60094  Biso   1.000  O
  O31      1.0000 0.45651  0.18230  0.89906  Biso   1.000  O
  O32      1.0000 0.54349  0.18230  0.60094  Biso   1.000  O
  O33      1.0000 0.98510  0.41410  0.22310  Biso   1.000  O
  O34      1.0000 0.01490  0.41410  0.27690  Biso   1.000  O
  O35      1.0000 0.48510  0.91410  0.22310  Biso   1.000  O
  O36      1.0000 0.51490  0.91410  0.27690  Biso   1.000  O
  O37      1.0000 0.01490  0.58590  0.77690  Biso   1.000  O
  O38      1.0000 0.98510  0.58590  0.72310  Biso   1.000  O
  O39      1.0000 0.51490  0.08590  0.77690  Biso   1.000  O
  O40      1.0000 0.48510  0.08590  0.72310  Biso   1.000  O
  N1       1.0000 0.09328  0.24530  0.14992  Biso   1.000  N
  N2       1.0000 0.90672  0.24530  0.35008  Biso   1.000  N
  N3       1.0000 0.59328  0.74530  0.14992  Biso   1.000  N
  N4       1.0000 0.40672  0.74530  0.35008  Biso   1.000  N
  N5       1.0000 0.90672  0.75470  0.85008  Biso   1.000  N
  N6       1.0000 0.09328  0.75470  0.64992  Biso   1.000  N
  N7       1.0000 0.40672  0.25470  0.85008  Biso   1.000  N
  N8       1.0000 0.59328  0.25470  0.64992  Biso   1.000  N
  N9       1.0000 0.17036  0.42910  0.02670  Biso   1.000  N
  N10      1.0000 0.82964  0.42910  0.47330  Biso   1.000  N
  N11      1.0000 0.67036  0.92910  0.02670  Biso   1.000  N
  N12      1.0000 0.32964  0.92910  0.47330  Biso   1.000  N
  N13      1.0000 0.82964  0.57090  0.97330  Biso   1.000  N
  N14      1.0000 0.17036  0.57090  0.52670  Biso   1.000  N
  N15      1.0000 0.32964  0.07090  0.97330  Biso   1.000  N
  N16      1.0000 0.67036  0.07090  0.52670  Biso   1.000  N
  N17      1.0000 0.13873  0.55490  0.98243  Biso   1.000  N
  N18      1.0000 0.86127  0.55490  0.51757  Biso   1.000  N
  N19      1.0000 0.63873  0.05490  0.98243  Biso   1.000  N
  N20      1.0000 0.36127  0.05490  0.51757  Biso   1.000  N
  N21      1.0000 0.86127  0.44510  0.01757  Biso   1.000  N
  N22      1.0000 0.13873  0.44510  0.48243  Biso   1.000  N
  N23      1.0000 0.36127  0.94510  0.01757  Biso   1.000  N
  N24      1.0000 0.63873  0.94510  0.48243  Biso   1.000  N
  N25      1.0000 0.22476  0.49310  0.09246  Biso   1.000  N
  N26      1.0000 0.77524  0.49310  0.40754  Biso   1.000  N
  N27      1.0000 0.72476  0.99310  0.09246  Biso   1.000  N
  N28      1.0000 0.27524  0.99310  0.40754  Biso   1.000  N
  N29      1.0000 0.77524  0.50690  0.90754  Biso   1.000  N
  N30      1.0000 0.22476  0.50690  0.59246  Biso   1.000  N
  N31      1.0000 0.27524  0.00690  0.90754  Biso   1.000  N
  N32      1.0000 0.72476  0.00690  0.59246  Biso   1.000  N
  N33      1.0000 0.27423  0.76240  0.13654  Biso   1.000  N
  N34      1.0000 0.72577  0.76240  0.36346  Biso   1.000  N
  N35      1.0000 0.77423  0.26240  0.13654  Biso   1.000  N
  N36      1.0000 0.22577  0.26240  0.36346  Biso   1.000  N
  N37      1.0000 0.72577  0.23760  0.86346  Biso   1.000  N
  N38      1.0000 0.27423  0.23760  0.63654  Biso   1.000  N
  N39      1.0000 0.22577  0.73760  0.86346  Biso   1.000  N
  N40      1.0000 0.77423  0.73760  0.63654  Biso   1.000  N
  H1       1.0000 0.30720  0.72210  0.17760  Biso   1.000  H
  H2       1.0000 0.69280  0.72210  0.32240  Biso   1.000  H
  H3       1.0000 0.80720  0.22210  0.17760  Biso   1.000  H
  H4       1.0000 0.19280  0.22210  0.32240  Biso   1.000  H
  H5       1.0000 0.69280  0.27790  0.82240  Biso   1.000  H
  H6       1.0000 0.30720  0.27790  0.67760  Biso   1.000  H
  H7       1.0000 0.19280  0.77790  0.82240  Biso   1.000  H
  H8       1.0000 0.80720  0.77790  0.67760  Biso   1.000  H
  H9       1.0000 0.27180  0.86790  0.12800  Biso   1.000  H
  H10      1.0000 0.72820  0.86790  0.37200  Biso   1.000  H
  H11      1.0000 0.77180  0.36790  0.12800  Biso   1.000  H
  H12      1.0000 0.22820  0.36790  0.37200  Biso   1.000  H
  H13      1.0000 0.72820  0.13210  0.87200  Biso   1.000  H
  H14      1.0000 0.27180  0.13210  0.62800  Biso   1.000  H
  H15      1.0000 0.22820  0.63210  0.87200  Biso   1.000  H
  H16      1.0000 0.77180  0.63210  0.62800  Biso   1.000  H
  N41      1.0000 0.08770  0.85610  0.91403  Biso   1.000  N
  N42      1.0000 0.91230  0.85610  0.58597  Biso   1.000  N
  N43      1.0000 0.58770  0.35610  0.91403  Biso   1.000  N
  N44      1.0000 0.41230  0.35610  0.58597  Biso   1.000  N
  N45      1.0000 0.91230  0.14390  0.08597  Biso   1.000  N
  N46      1.0000 0.08770  0.14390  0.41403  Biso   1.000  N
  N47      1.0000 0.41230  0.64390  0.08597  Biso   1.000  N
  N48      1.0000 0.58770  0.64390  0.41403  Biso   1.000  N
  H17      1.0000 0.07130  0.76020  0.89500  Biso   1.000  H
  H18      1.0000 0.92870  0.76020  0.60500  Biso   1.000  H
  H19      1.0000 0.57130  0.26020  0.89500  Biso   1.000  H
  H20      1.0000 0.42870  0.26020  0.60500  Biso   1.000  H
  H21      1.0000 0.92870  0.23980  0.10500  Biso   1.000  H
  H22      1.0000 0.07130  0.23980  0.39500  Biso   1.000  H
  H23      1.0000 0.42870  0.73980  0.10500  Biso   1.000  H
  H24      1.0000 0.57130  0.73980  0.39500  Biso   1.000  H
  C1       1.0000 0.22682  0.66100  0.08590  Biso   1.000  C
  C2       1.0000 0.77318  0.66100  0.41410  Biso   1.000  C
  C3       1.0000 0.72682  0.16100  0.08590  Biso   1.000  C
  C4       1.0000 0.27318  0.16100  0.41410  Biso   1.000  C
  C5       1.0000 0.77318  0.33900  0.91410  Biso   1.000  C
  C6       1.0000 0.22682  0.33900  0.58590  Biso   1.000  C
  C7       1.0000 0.27318  0.83900  0.91410  Biso   1.000  C
  C8       1.0000 0.72682  0.83900  0.58590  Biso   1.000  C
  C9       1.0000 0.17053  0.69880  0.01590  Biso   1.000  C
  C10      1.0000 0.82947  0.69880  0.48410  Biso   1.000  C
  C11      1.0000 0.67053  0.19880  0.01590  Biso   1.000  C
  C12      1.0000 0.32947  0.19880  0.48410  Biso   1.000  C
  C13      1.0000 0.82947  0.30120  0.98410  Biso   1.000  C
  C14      1.0000 0.17053  0.30120  0.51590  Biso   1.000  C
  C15      1.0000 0.32947  0.80120  0.98410  Biso   1.000  C
  C16      1.0000 0.67053  0.80120  0.51590  Biso   1.000  C
  C17      1.0000 0.14438  0.86040  0.98009  Biso   1.000  C
  C18      1.0000 0.85562  0.86040  0.51991  Biso   1.000  C
  C19      1.0000 0.64438  0.36040  0.98009  Biso   1.000  C
  C20      1.0000 0.35562  0.36040  0.51991  Biso   1.000  C
  C21      1.0000 0.85562  0.13960  0.01991  Biso   1.000  C
  C22      1.0000 0.14438  0.13960  0.48009  Biso   1.000  C
  C23      1.0000 0.35562  0.63960  0.01991  Biso   1.000  C
  C24      1.0000 0.64438  0.63960  0.48009  Biso   1.000  C
  C25      1.0000 0.05147  0.00280  0.87160  Biso   1.000  C
  C26      1.0000 0.94853  0.00280  0.62840  Biso   1.000  C
  C27      1.0000 0.55147  0.50280  0.87160  Biso   1.000  C
  C28      1.0000 0.44853  0.50280  0.62840  Biso   1.000  C
  C29      1.0000 0.94853  0.99720  0.12840  Biso   1.000  C
  C30      1.0000 0.05147  0.99720  0.37160  Biso   1.000  C
  C31      1.0000 0.44853  0.49720  0.12840  Biso   1.000  C
  C32      1.0000 0.55147  0.49720  0.37160  Biso   1.000  C
  H25      1.0000 0.01120  0.96800  0.82560  Biso   1.000  H
  H26      1.0000 0.98880  0.96800  0.67440  Biso   1.000  H
  H27      1.0000 0.51120  0.46800  0.82560  Biso   1.000  H
  H28      1.0000 0.48880  0.46800  0.67440  Biso   1.000  H
  H29      1.0000 0.98880  0.03200  0.17440  Biso   1.000  H
  H30      1.0000 0.01120  0.03200  0.32560  Biso   1.000  H
  H31      1.0000 0.48880  0.53200  0.17440  Biso   1.000  H
  H32      1.0000 0.51120  0.53200  0.32560  Biso   1.000  H
  H33      1.0000 0.08100  0.06410  0.85310  Biso   1.000  H
  H34      1.0000 0.91900  0.06410  0.64690  Biso   1.000  H
  H35      1.0000 0.58100  0.56410  0.85310  Biso   1.000  H
  H36      1.0000 0.41900  0.56410  0.64690  Biso   1.000  H
  H37      1.0000 0.91900  0.93590  0.14690  Biso   1.000  H
  H38      1.0000 0.08100  0.93590  0.35310  Biso   1.000  H
  H39      1.0000 0.41900  0.43590  0.14690  Biso   1.000  H
  H40      1.0000 0.58100  0.43590  0.35310  Biso   1.000  H
  C33      1.0000 0.02951  0.11560  0.92090  Biso   1.000  C
  C34      1.0000 0.97049  0.11560  0.57910  Biso   1.000  C
  C35      1.0000 0.52951  0.61560  0.92090  Biso   1.000  C
  C36      1.0000 0.47049  0.61560  0.57910  Biso   1.000  C
  C37      1.0000 0.97049  0.88440  0.07910  Biso   1.000  C
  C38      1.0000 0.02951  0.88440  0.42090  Biso   1.000  C
  C39      1.0000 0.47049  0.38440  0.07910  Biso   1.000  C
  C40      1.0000 0.52951  0.38440  0.42090  Biso   1.000  C
  H41      1.0000 0.01620  0.06750  0.95790  Biso   1.000  H
  H42      1.0000 0.98380  0.06750  0.54210  Biso   1.000  H
  H43      1.0000 0.51620  0.56750  0.95790  Biso   1.000  H
  H44      1.0000 0.48380  0.56750  0.54210  Biso   1.000  H
  H45      1.0000 0.98380  0.93250  0.04210  Biso   1.000  H
  H46      1.0000 0.01620  0.93250  0.45790  Biso   1.000  H
  H47      1.0000 0.48380  0.43250  0.04210  Biso   1.000  H
  H48      1.0000 0.51620  0.43250  0.45790  Biso   1.000  H
  C41      1.0000 0.02787  0.28470  0.91480  Biso   1.000  C
  C42      1.0000 0.97213  0.28470  0.58520  Biso   1.000  C
  C43      1.0000 0.52787  0.78470  0.91480  Biso   1.000  C
  C44      1.0000 0.47213  0.78470  0.58520  Biso   1.000  C
  C45      1.0000 0.97213  0.71530  0.08520  Biso   1.000  C
  C46      1.0000 0.02787  0.71530  0.41480  Biso   1.000  C
  C47      1.0000 0.47213  0.21530  0.08520  Biso   1.000  C
  C48      1.0000 0.52787  0.21530  0.41480  Biso   1.000  C
  H49      1.0000 0.04090  0.33630  0.87830  Biso   1.000  H
  H50      1.0000 0.95910  0.33630  0.62170  Biso   1.000  H
  H51      1.0000 0.54090  0.83630  0.87830  Biso   1.000  H
  H52      1.0000 0.45910  0.83630  0.62170  Biso   1.000  H
  H53      1.0000 0.95910  0.66370  0.12170  Biso   1.000  H
  H54      1.0000 0.04090  0.66370  0.37830  Biso   1.000  H
  H55      1.0000 0.45910  0.16370  0.12170  Biso   1.000  H
  H56      1.0000 0.54090  0.16370  0.37830  Biso   1.000  H
  H57      1.0000 0.01370  0.34860  0.94710  Biso   1.000  H
  H58      1.0000 0.98630  0.34860  0.55290  Biso   1.000  H
  H59      1.0000 0.51370  0.84860  0.94710  Biso   1.000  H
  H60      1.0000 0.48630  0.84860  0.55290  Biso   1.000  H
  H61      1.0000 0.98630  0.65140  0.05290  Biso   1.000  H
  H62      1.0000 0.01370  0.65140  0.44710  Biso   1.000  H
  H63      1.0000 0.48630  0.15140  0.05290  Biso   1.000  H
  H64      1.0000 0.51370  0.15140  0.44710  Biso   1.000  H
  C49      1.0000 0.27250  0.38450  0.15000  Biso   1.000  C
  C50      1.0000 0.72750  0.38450  0.35000  Biso   1.000  C
  C51      1.0000 0.77250  0.88450  0.15000  Biso   1.000  C
  C52      1.0000 0.22750  0.88450  0.35000  Biso   1.000  C
  C53      1.0000 0.72750  0.61550  0.85000  Biso   1.000  C
  C54      1.0000 0.27250  0.61550  0.65000  Biso   1.000  C
  C55      1.0000 0.22750  0.11550  0.85000  Biso   1.000  C
  C56      1.0000 0.77250  0.11550  0.65000  Biso   1.000  C
  C57      1.0000 0.29751  0.24700  0.12490  Biso   1.000  C
  C58      1.0000 0.70249  0.24700  0.37510  Biso   1.000  C
  C59      1.0000 0.79751  0.74700  0.12490  Biso   1.000  C
  C60      1.0000 0.20249  0.74700  0.37510  Biso   1.000  C
  C61      1.0000 0.70249  0.75300  0.87510  Biso   1.000  C
  C62      1.0000 0.29751  0.75300  0.62490  Biso   1.000  C
  C63      1.0000 0.20249  0.25300  0.87510  Biso   1.000  C
  C64      1.0000 0.79751  0.25300  0.62490  Biso   1.000  C
  H65      1.0000 0.28270  0.22410  0.07140  Biso   1.000  H
  H66      1.0000 0.71730  0.22410  0.42860  Biso   1.000  H
  H67      1.0000 0.78270  0.72410  0.07140  Biso   1.000  H
  H68      1.0000 0.21730  0.72410  0.42860  Biso   1.000  H
  H69      1.0000 0.71730  0.77590  0.92860  Biso   1.000  H
  H70      1.0000 0.28270  0.77590  0.57140  Biso   1.000  H
  H71      1.0000 0.21730  0.27590  0.92860  Biso   1.000  H
  H72      1.0000 0.78270  0.27590  0.57140  Biso   1.000  H
  C65      1.0000 0.34478  0.14470  0.18080  Biso   1.000  C
  C66      1.0000 0.65522  0.14470  0.31920  Biso   1.000  C
  C67      1.0000 0.84478  0.64470  0.18080  Biso   1.000  C
  C68      1.0000 0.15522  0.64470  0.31920  Biso   1.000  C
  C69      1.0000 0.65522  0.85530  0.81920  Biso   1.000  C
  C70      1.0000 0.34478  0.85530  0.68080  Biso   1.000  C
  C71      1.0000 0.15522  0.35530  0.81920  Biso   1.000  C
  C72      1.0000 0.84478  0.35530  0.68080  Biso   1.000  C
  H73      1.0000 0.36210  0.05260  0.16470  Biso   1.000  H
  H74      1.0000 0.63790  0.05260  0.33530  Biso   1.000  H
  H75      1.0000 0.86210  0.55260  0.16470  Biso   1.000  H
  H76      1.0000 0.13790  0.55260  0.33530  Biso   1.000  H
  H77      1.0000 0.63790  0.94740  0.83530  Biso   1.000  H
  H78      1.0000 0.36210  0.94740  0.66470  Biso   1.000  H
  H79      1.0000 0.13790  0.44740  0.83530  Biso   1.000  H
  H80      1.0000 0.86210  0.44740  0.66470  Biso   1.000  H
  C73      1.0000 0.36664  0.17840  0.26070  Biso   1.000  C
  C74      1.0000 0.63336  0.17840  0.23930  Biso   1.000  C
  C75      1.0000 0.86664  0.67840  0.26070  Biso   1.000  C
  C76      1.0000 0.13336  0.67840  0.23930  Biso   1.000  C
  C77      1.0000 0.63336  0.82160  0.73930  Biso   1.000  C
  C78      1.0000 0.36664  0.82160  0.76070  Biso   1.000  C
  C79      1.0000 0.13336  0.32160  0.73930  Biso   1.000  C
  C80      1.0000 0.86664  0.32160  0.76070  Biso   1.000  C
  H81      1.0000 0.39820  0.10850  0.29810  Biso   1.000  H
  H82      1.0000 0.60180  0.10850  0.20190  Biso   1.000  H
  H83      1.0000 0.89820  0.60850  0.29810  Biso   1.000  H
  H84      1.0000 0.10180  0.60850  0.20190  Biso   1.000  H
  H85      1.0000 0.60180  0.89150  0.70190  Biso   1.000  H
  H86      1.0000 0.39820  0.89150  0.79810  Biso   1.000  H
  H87      1.0000 0.10180  0.39150  0.70190  Biso   1.000  H
  H88      1.0000 0.89820  0.39150  0.79810  Biso   1.000  H
  C81      1.0000 0.34155  0.31510  0.28450  Biso   1.000  C
  C82      1.0000 0.65845  0.31510  0.21550  Biso   1.000  C
  C83      1.0000 0.84155  0.81510  0.28450  Biso   1.000  C
  C84      1.0000 0.15845  0.81510  0.21550  Biso   1.000  C
  C85      1.0000 0.65845  0.68490  0.71550  Biso   1.000  C
  C86      1.0000 0.34155  0.68490  0.78450  Biso   1.000  C
  C87      1.0000 0.15845  0.18490  0.71550  Biso   1.000  C
  C88      1.0000 0.84155  0.18490  0.78450  Biso   1.000  C
  H89      1.0000 0.35690  0.33850  0.33800  Biso   1.000  H
  H90      1.0000 0.64310  0.33850  0.16200  Biso   1.000  H
  H91      1.0000 0.85690  0.83850  0.33800  Biso   1.000  H
  H92      1.0000 0.14310  0.83850  0.16200  Biso   1.000  H
  H93      1.0000 0.64310  0.66150  0.66200  Biso   1.000  H
  H94      1.0000 0.35690  0.66150  0.83800  Biso   1.000  H
  H95      1.0000 0.14310  0.16150  0.66200  Biso   1.000  H
  H96      1.0000 0.85690  0.16150  0.83800  Biso   1.000  H
  C89      1.0000 0.29327  0.41960  0.22930  Biso   1.000  C
  C90      1.0000 0.70673  0.41960  0.27070  Biso   1.000  C
  C91      1.0000 0.79327  0.91960  0.22930  Biso   1.000  C
  C92      1.0000 0.20673  0.91960  0.27070  Biso   1.000  C
  C93      1.0000 0.70673  0.58040  0.77070  Biso   1.000  C
  C94      1.0000 0.29327  0.58040  0.72930  Biso   1.000  C
  C95      1.0000 0.20673  0.08040  0.77070  Biso   1.000  C
  C96      1.0000 0.79327  0.08040  0.72930  Biso   1.000  C
  H97      1.0000 0.27550  0.51060  0.24550  Biso   1.000  H
  H98      1.0000 0.72450  0.51060  0.25450  Biso   1.000  H
  H99      1.0000 0.77550  0.01060  0.24550  Biso   1.000  H
  H100     1.0000 0.22450  0.01060  0.25450  Biso   1.000  H
  H101     1.0000 0.72450  0.48940  0.75450  Biso   1.000  H
  H102     1.0000 0.27550  0.48940  0.74550  Biso   1.000  H
  H103     1.0000 0.22450  0.98940  0.75450  Biso   1.000  H
  H104     1.0000 0.77550  0.98940  0.74550  Biso   1.000  H
  H105     1.0000 0.01700  0.35900  0.23200  Biso   1.000  H
  H106     1.0000 0.98300  0.35900  0.26800  Biso   1.000  H
  H107     1.0000 0.51700  0.85900  0.23200  Biso   1.000  H
  H108     1.0000 0.48300  0.85900  0.26800  Biso   1.000  H
  H109     1.0000 0.98300  0.64100  0.76800  Biso   1.000  H
  H110     1.0000 0.01700  0.64100  0.73200  Biso   1.000  H
  H111     1.0000 0.48300  0.14100  0.76800  Biso   1.000  H
  H112     1.0000 0.51700  0.14100  0.73200  Biso   1.000  H
