data_image0
_cell_length_a       11.4848
_cell_length_b       9.2543
_cell_length_c       25.8293
_cell_angle_alpha    90
_cell_angle_beta     102.839
_cell_angle_gamma    90

_symmetry_space_group_name_H-M    "P 1"
_symmetry_int_tables_number       1

loop_
  _symmetry_equiv_pos_as_xyz
  'x, y, z'

loop_
  _atom_site_label
  _atom_site_occupancy
  _atom_site_fract_x
  _atom_site_fract_y
  _atom_site_fract_z
  _atom_site_thermal_displace_type
  _atom_site_B_iso_or_equiv
  _atom_site_type_symbol
  Cu1      1.0000 0.89532  0.57797  0.63389  Biso   1.000  Cu
  Cu2      1.0000 0.89532  0.42203  0.13389  Biso   1.000  Cu
  Cu3      1.0000 0.39310  0.58069  0.62254  Biso   1.000  Cu
  Cu4      1.0000 0.39310  0.41931  0.12254  Biso   1.000  Cu
  Cl1      1.0000 0.79520  0.15800  0.67204  Biso   1.000  Cl
  Cl2      1.0000 0.79520  0.84200  0.17204  Biso   1.000  Cl
  Cl3      1.0000 0.08890  0.93760  0.49873  Biso   1.000  Cl
  Cl4      1.0000 0.08890  0.06240  0.99873  Biso   1.000  Cl
  Cl5      1.0000 0.27400  0.15030  0.67004  Biso   1.000  Cl
  Cl6      1.0000 0.27400  0.84970  0.17004  Biso   1.000  Cl
  Cl7      1.0000 0.56970  0.38120  0.44851  Biso   1.000  Cl
  Cl8      1.0000 0.56970  0.61880  0.94851  Biso   1.000  Cl
  S1       1.0000 0.52750  0.40510  0.66348  Biso   1.000  S
  S2       1.0000 0.52750  0.59490  0.16348  Biso   1.000  S
  S3       1.0000 0.04010  0.41250  0.66770  Biso   1.000  S
  S4       1.0000 0.04010  0.58750  0.16770  Biso   1.000  S
  N1       1.0000 0.73320  0.51580  0.63770  Biso   1.000  N
  N2       1.0000 0.73320  0.48420  0.13770  Biso   1.000  N
  N3       1.0000 0.23140  0.53530  0.63230  Biso   1.000  N
  N4       1.0000 0.23140  0.46470  0.13230  Biso   1.000  N
  N5       1.0000 0.94910  0.77250  0.67530  Biso   1.000  N
  N6       1.0000 0.94910  0.22750  0.17530  Biso   1.000  N
  N7       1.0000 0.89680  0.65500  0.56030  Biso   1.000  N
  N8       1.0000 0.89680  0.34500  0.06030  Biso   1.000  N
  N9       1.0000 0.44320  0.77930  0.66100  Biso   1.000  N
  N10      1.0000 0.44320  0.22070  0.16100  Biso   1.000  N
  N11      1.0000 0.40190  0.59020  0.54350  Biso   1.000  N
  N12      1.0000 0.40190  0.40980  0.04350  Biso   1.000  N
  C1       1.0000 0.65370  0.47310  0.64900  Biso   1.000  C
  C2       1.0000 0.65370  0.52690  0.14900  Biso   1.000  C
  C3       1.0000 0.15890  0.48560  0.64800  Biso   1.000  C
  C4       1.0000 0.15890  0.51440  0.14800  Biso   1.000  C
  C5       1.0000 0.86820  0.88350  0.66630  Biso   1.000  C
  C6       1.0000 0.86820  0.11650  0.16630  Biso   1.000  C
  H1       1.0000 0.79120  0.86750  0.64640  Biso   1.000  H
  H2       1.0000 0.79120  0.13250  0.14640  Biso   1.000  H
  C7       1.0000 0.90170  0.02310  0.68730  Biso   1.000  C
  C8       1.0000 0.90170  0.97690  0.18730  Biso   1.000  C
  C9       1.0000 0.01080  0.04340  0.71890  Biso   1.000  C
  C10      1.0000 0.01080  0.95660  0.21890  Biso   1.000  C
  H3       1.0000 0.03260  0.13400  0.73350  Biso   1.000  H
  H4       1.0000 0.03260  0.86600  0.23350  Biso   1.000  H
  C11      1.0000 0.08970  0.93040  0.72960  Biso   1.000  C
  C12      1.0000 0.08970  0.06960  0.22960  Biso   1.000  C
  H5       1.0000 0.16470  0.94430  0.75170  Biso   1.000  H
  H6       1.0000 0.16470  0.05570  0.25170  Biso   1.000  H
  C13      1.0000 0.05750  0.79210  0.70700  Biso   1.000  C
  C14      1.0000 0.05750  0.20790  0.20700  Biso   1.000  C
  H7       1.0000 0.11120  0.71570  0.71410  Biso   1.000  H
  H8       1.0000 0.11120  0.28430  0.21410  Biso   1.000  H
  C15      1.0000 0.97940  0.75380  0.55270  Biso   1.000  C
  C16      1.0000 0.97940  0.24620  0.05270  Biso   1.000  C
  H9       1.0000 0.03810  0.78370  0.58160  Biso   1.000  H
  H10      1.0000 0.03810  0.21630  0.08160  Biso   1.000  H
  C17      1.0000 0.97810  0.80980  0.50380  Biso   1.000  C
  C18      1.0000 0.97810  0.19020  0.00380  Biso   1.000  C
  C19      1.0000 0.89830  0.76830  0.45970  Biso   1.000  C
  C20      1.0000 0.89830  0.23170  0.95970  Biso   1.000  C
  H11      1.0000 0.90090  0.80710  0.42680  Biso   1.000  H
  H12      1.0000 0.90090  0.19290  0.92680  Biso   1.000  H
  C21      1.0000 0.81220  0.66670  0.46440  Biso   1.000  C
  C22      1.0000 0.81220  0.33330  0.96440  Biso   1.000  C
  H13      1.0000 0.75630  0.63250  0.43520  Biso   1.000  H
  H14      1.0000 0.75630  0.36750  0.93520  Biso   1.000  H
  C23      1.0000 0.81610  0.61830  0.51730  Biso   1.000  C
  C24      1.0000 0.81610  0.38170  0.01730  Biso   1.000  C
  H15      1.0000 0.75630  0.55510  0.52200  Biso   1.000  H
  H16      1.0000 0.75630  0.44490  0.02200  Biso   1.000  H
  C25      1.0000 0.35700  0.88490  0.65590  Biso   1.000  C
  C26      1.0000 0.35700  0.11510  0.15590  Biso   1.000  C
  H17      1.0000 0.28090  0.86720  0.63540  Biso   1.000  H
  H18      1.0000 0.28090  0.13280  0.13540  Biso   1.000  H
  C27      1.0000 0.38280  0.02000  0.68140  Biso   1.000  C
  C28      1.0000 0.38280  0.98000  0.18140  Biso   1.000  C
  C29      1.0000 0.49070  0.04150  0.71380  Biso   1.000  C
  C30      1.0000 0.49070  0.95850  0.21380  Biso   1.000  C
  H19      1.0000 0.50760  0.12850  0.73190  Biso   1.000  H
  H20      1.0000 0.50760  0.87150  0.23190  Biso   1.000  H
  C31      1.0000 0.57620  0.93440  0.72000  Biso   1.000  C
  C32      1.0000 0.57620  0.06560  0.22000  Biso   1.000  C
  H21      1.0000 0.65110  0.94980  0.74200  Biso   1.000  H
  H22      1.0000 0.65110  0.05020  0.24200  Biso   1.000  H
  C33      1.0000 0.55030  0.80110  0.69310  Biso   1.000  C
  C34      1.0000 0.55030  0.19890  0.19310  Biso   1.000  C
  H23      1.0000 0.60780  0.72860  0.69780  Biso   1.000  H
  H24      1.0000 0.60780  0.27140  0.19780  Biso   1.000  H
  C35      1.0000 0.47300  0.50250  0.52390  Biso   1.000  C
  C36      1.0000 0.47300  0.49750  0.02390  Biso   1.000  C
  H25      1.0000 0.52280  0.43950  0.54680  Biso   1.000  H
  H26      1.0000 0.52280  0.56050  0.04680  Biso   1.000  H
  C37      1.0000 0.47530  0.50200  0.47070  Biso   1.000  C
  C38      1.0000 0.47530  0.49800  0.97070  Biso   1.000  C
  C39      1.0000 0.40380  0.59430  0.43530  Biso   1.000  C
  C40      1.0000 0.40380  0.40570  0.93530  Biso   1.000  C
  H27      1.0000 0.40770  0.59860  0.39980  Biso   1.000  H
  H28      1.0000 0.40770  0.40140  0.89980  Biso   1.000  H
  C41      1.0000 0.32460  0.68140  0.45600  Biso   1.000  C
  C42      1.0000 0.32460  0.31860  0.95600  Biso   1.000  C
  H29      1.0000 0.27090  0.74230  0.43410  Biso   1.000  H
  H30      1.0000 0.27090  0.25770  0.93410  Biso   1.000  H
  C43      1.0000 0.32890  0.67400  0.51120  Biso   1.000  C
  C44      1.0000 0.32890  0.32600  0.01120  Biso   1.000  C
  H31      1.0000 0.27680  0.73190  0.52490  Biso   1.000  H
  H32      1.0000 0.27680  0.26810  0.02490  Biso   1.000  H
  Cu5      1.0000 0.26750  0.08405  0.37312  Biso   1.000  Cu
  Cu6      1.0000 0.26750  0.91595  0.87312  Biso   1.000  Cu
  Cu7      1.0000 0.75460  0.08397  0.35939  Biso   1.000  Cu
  Cu8      1.0000 0.75460  0.91603  0.85939  Biso   1.000  Cu
  Cl9      1.0000 0.62100  0.87860  0.54616  Biso   1.000  Cl
  Cl10     1.0000 0.62100  0.12140  0.04616  Biso   1.000  Cl
  Cl11     1.0000 0.11150  0.65350  0.32576  Biso   1.000  Cl
  Cl12     1.0000 0.11150  0.34650  0.82576  Biso   1.000  Cl
  Cl13     1.0000 0.08820  0.43950  0.49355  Biso   1.000  Cl
  Cl14     1.0000 0.08820  0.56050  0.99355  Biso   1.000  Cl
  Cl15     1.0000 0.61050  0.65990  0.32204  Biso   1.000  Cl
  Cl16     1.0000 0.61050  0.34010  0.82204  Biso   1.000  Cl
  S5       1.0000 0.87050  0.91920  0.32668  Biso   1.000  S
  S6       1.0000 0.87050  0.08080  0.82668  Biso   1.000  S
  S7       1.0000 0.36160  0.90490  0.33287  Biso   1.000  S
  S8       1.0000 0.36160  0.09510  0.83287  Biso   1.000  S
  N13      1.0000 0.09780  0.04000  0.36240  Biso   1.000  N
  N14      1.0000 0.09780  0.96000  0.86240  Biso   1.000  N
  N15      1.0000 0.59320  0.02130  0.35480  Biso   1.000  N
  N16      1.0000 0.59320  0.97870  0.85480  Biso   1.000  N
  N17      1.0000 0.35700  0.09080  0.45280  Biso   1.000  N
  N18      1.0000 0.35700  0.90920  0.95280  Biso   1.000  N
  N19      1.0000 0.27590  0.27790  0.33480  Biso   1.000  N
  N20      1.0000 0.27590  0.72210  0.83480  Biso   1.000  N
  N21      1.0000 0.83270  0.16150  0.43330  Biso   1.000  N
  N22      1.0000 0.83270  0.83850  0.93330  Biso   1.000  N
  N23      1.0000 0.75570  0.27700  0.31740  Biso   1.000  N
  N24      1.0000 0.75570  0.72300  0.81740  Biso   1.000  N
  C45      1.0000 0.00300  0.99140  0.34960  Biso   1.000  C
  C46      1.0000 0.00300  0.00860  0.84960  Biso   1.000  C
  C47      1.0000 0.49690  0.97290  0.34670  Biso   1.000  C
  C48      1.0000 0.49690  0.02710  0.84670  Biso   1.000  C
  C49      1.0000 0.45100  0.00360  0.47140  Biso   1.000  C
  C50      1.0000 0.45100  0.99640  0.97140  Biso   1.000  C
  H33      1.0000 0.47890  0.94360  0.44790  Biso   1.000  H
  H34      1.0000 0.47890  0.05640  0.94790  Biso   1.000  H
  C51      1.0000 0.50700  0.00150  0.52500  Biso   1.000  C
  C52      1.0000 0.50700  0.99850  0.02500  Biso   1.000  C
  C53      1.0000 0.46750  0.08960  0.56030  Biso   1.000  C
  C54      1.0000 0.46750  0.91040  0.06030  Biso   1.000  C
  H35      1.0000 0.50230  0.08680  0.59640  Biso   1.000  H
  H36      1.0000 0.50230  0.91320  0.09640  Biso   1.000  H
  C55      1.0000 0.37170  0.18500  0.53960  Biso   1.000  C
  C56      1.0000 0.37170  0.81500  0.03960  Biso   1.000  C
  H37      1.0000 0.34580  0.25270  0.56120  Biso   1.000  H
  H38      1.0000 0.34580  0.74730  0.06120  Biso   1.000  H
  C57      1.0000 0.31940  0.17430  0.48750  Biso   1.000  C
  C58      1.0000 0.31940  0.82570  0.98750  Biso   1.000  C
  H39      1.0000 0.25160  0.22990  0.47490  Biso   1.000  H
  H40      1.0000 0.25160  0.77010  0.97490  Biso   1.000  H
  C59      1.0000 0.20650  0.38640  0.34060  Biso   1.000  C
  C60      1.0000 0.20650  0.61360  0.84060  Biso   1.000  C
  H41      1.0000 0.15540  0.37580  0.36370  Biso   1.000  H
  H42      1.0000 0.15540  0.62420  0.86370  Biso   1.000  H
  C61      1.0000 0.20570  0.51500  0.31400  Biso   1.000  C
  C62      1.0000 0.20570  0.48500  0.81400  Biso   1.000  C
  C63      1.0000 0.28440  0.53830  0.28000  Biso   1.000  C
  C64      1.0000 0.28440  0.46170  0.78000  Biso   1.000  C
  H43      1.0000 0.28750  0.62640  0.26300  Biso   1.000  H
  H44      1.0000 0.28750  0.37360  0.76300  Biso   1.000  H
  C65      1.0000 0.35590  0.42480  0.27330  Biso   1.000  C
  C66      1.0000 0.35590  0.57520  0.77330  Biso   1.000  C
  H45      1.0000 0.40690  0.43200  0.25010  Biso   1.000  H
  H46      1.0000 0.40690  0.56800  0.75010  Biso   1.000  H
  C67      1.0000 0.35110  0.30230  0.30100  Biso   1.000  C
  C68      1.0000 0.35110  0.69770  0.80100  Biso   1.000  C
  H47      1.0000 0.40290  0.22810  0.29690  Biso   1.000  H
  H48      1.0000 0.40290  0.77190  0.79690  Biso   1.000  H
  C69      1.0000 0.92080  0.25760  0.43940  Biso   1.000  C
  C70      1.0000 0.92080  0.74240  0.93940  Biso   1.000  C
  H49      1.0000 0.94690  0.28920  0.40980  Biso   1.000  H
  H50      1.0000 0.94690  0.71080  0.90980  Biso   1.000  H
  C71      1.0000 0.97560  0.31290  0.48990  Biso   1.000  C
  C72      1.0000 0.97560  0.68710  0.98990  Biso   1.000  C
  C73      1.0000 0.93370  0.26800  0.53440  Biso   1.000  C
  C74      1.0000 0.93370  0.73200  0.03440  Biso   1.000  C
  H51      1.0000 0.96530  0.30420  0.56820  Biso   1.000  H
  H52      1.0000 0.96530  0.69580  0.06820  Biso   1.000  H
  C75      1.0000 0.84780  0.17260  0.52570  Biso   1.000  C
  C76      1.0000 0.84780  0.82740  0.02570  Biso   1.000  C
  H53      1.0000 0.81990  0.13830  0.55460  Biso   1.000  H
  H54      1.0000 0.81990  0.86170  0.05460  Biso   1.000  H
  C77      1.0000 0.79590  0.11960  0.47550  Biso   1.000  C
  C78      1.0000 0.79590  0.88040  0.97550  Biso   1.000  C
  H55      1.0000 0.73380  0.05310  0.47180  Biso   1.000  H
  H56      1.0000 0.73380  0.94690  0.97180  Biso   1.000  H
  C79      1.0000 0.69020  0.38740  0.32650  Biso   1.000  C
  C80      1.0000 0.69020  0.61260  0.82650  Biso   1.000  C
  H57      1.0000 0.63380  0.37140  0.34680  Biso   1.000  H
  H58      1.0000 0.63380  0.62860  0.84680  Biso   1.000  H
  C81      1.0000 0.70050  0.52090  0.30820  Biso   1.000  C
  C82      1.0000 0.70050  0.47910  0.80820  Biso   1.000  C
  C83      1.0000 0.78870  0.55230  0.27860  Biso   1.000  C
  C84      1.0000 0.78870  0.44770  0.77860  Biso   1.000  C
  H59      1.0000 0.79740  0.64430  0.26540  Biso   1.000  H
  H60      1.0000 0.79740  0.35570  0.76540  Biso   1.000  H
  C85      1.0000 0.86010  0.43870  0.27060  Biso   1.000  C
  C86      1.0000 0.86010  0.56130  0.77060  Biso   1.000  C
  H61      1.0000 0.92050  0.45200  0.25230  Biso   1.000  H
  H62      1.0000 0.92050  0.54800  0.75230  Biso   1.000  H
  C87      1.0000 0.84060  0.30850  0.28980  Biso   1.000  C
  C88      1.0000 0.84060  0.69150  0.78980  Biso   1.000  C
  H63      1.0000 0.88940  0.23310  0.28380  Biso   1.000  H
  H64      1.0000 0.88940  0.76690  0.78380  Biso   1.000  H
