data_image0
_cell_length_a       11.5742
_cell_length_b       9.4358
_cell_length_c       25.9158
_cell_angle_alpha    90
_cell_angle_beta     102.911
_cell_angle_gamma    90

_symmetry_space_group_name_H-M    "P 1"
_symmetry_int_tables_number       1

loop_
  _symmetry_equiv_pos_as_xyz
  'x, y, z'

loop_
  _atom_site_label
  _atom_site_occupancy
  _atom_site_fract_x
  _atom_site_fract_y
  _atom_site_fract_z
  _atom_site_thermal_displace_type
  _atom_site_B_iso_or_equiv
  _atom_site_type_symbol
  Br1      1.0000 0.22267  0.84308  0.33180  Biso   1.000  Br
  Br2      1.0000 0.22267  0.15692  0.83180  Biso   1.000  Br
  S1       1.0000 0.45050  0.58160  0.33113  Biso   1.000  S
  S2       1.0000 0.45050  0.41840  0.83113  Biso   1.000  S
  Br3      1.0000 0.92206  0.62200  0.55181  Biso   1.000  Br
  Br4      1.0000 0.92206  0.37800  0.05181  Biso   1.000  Br
  S3       1.0000 0.96150  0.58990  0.33527  Biso   1.000  S
  S4       1.0000 0.96150  0.41010  0.83527  Biso   1.000  S
  Br5      1.0000 0.69846  0.83529  0.32643  Biso   1.000  Br
  Br6      1.0000 0.69846  0.16471  0.82643  Biso   1.000  Br
  Br7      1.0000 0.39701  0.04664  0.49712  Biso   1.000  Br
  Br8      1.0000 0.39701  0.95336  0.99712  Biso   1.000  Br
  Cu1      1.0000 0.09747  0.41684  0.37378  Biso   1.000  Cu
  Cu2      1.0000 0.09747  0.58316  0.87378  Biso   1.000  Cu
  Cu3      1.0000 0.59604  0.41723  0.36229  Biso   1.000  Cu
  Cu4      1.0000 0.59604  0.58277  0.86229  Biso   1.000  Cu
  N1       1.0000 0.25690  0.45770  0.36320  Biso   1.000  N
  N2       1.0000 0.25690  0.54230  0.86320  Biso   1.000  N
  N3       1.0000 0.75440  0.47610  0.35910  Biso   1.000  N
  N4       1.0000 0.75440  0.52390  0.85910  Biso   1.000  N
  N5       1.0000 0.04990  0.22210  0.33700  Biso   1.000  N
  N6       1.0000 0.04990  0.77790  0.83700  Biso   1.000  N
  N7       1.0000 0.09010  0.40640  0.45270  Biso   1.000  N
  N8       1.0000 0.09010  0.59360  0.95270  Biso   1.000  N
  N9       1.0000 0.54380  0.22920  0.32010  Biso   1.000  N
  N10      1.0000 0.54380  0.77080  0.82010  Biso   1.000  N
  N11      1.0000 0.59370  0.33680  0.43660  Biso   1.000  N
  N12      1.0000 0.59370  0.66320  0.93660  Biso   1.000  N
  C1       1.0000 0.33750  0.50770  0.35050  Biso   1.000  C
  C2       1.0000 0.33750  0.49230  0.85050  Biso   1.000  C
  C3       1.0000 0.83900  0.52120  0.34940  Biso   1.000  C
  C4       1.0000 0.83900  0.47880  0.84940  Biso   1.000  C
  C5       1.0000 0.13060  0.11660  0.34300  Biso   1.000  C
  C6       1.0000 0.13060  0.88340  0.84300  Biso   1.000  C
  H1       1.0000 0.20590  0.13250  0.36390  Biso   1.000  H
  H2       1.0000 0.20590  0.86750  0.86390  Biso   1.000  H
  C7       1.0000 0.10540  0.98590  0.31910  Biso   1.000  C
  C8       1.0000 0.10540  0.01410  0.81910  Biso   1.000  C
  C9       1.0000 0.99540  0.96200  0.28680  Biso   1.000  C
  C10      1.0000 0.99540  0.03800  0.78680  Biso   1.000  C
  H3       1.0000 0.97700  0.87480  0.27030  Biso   1.000  H
  H4       1.0000 0.97700  0.12520  0.77030  Biso   1.000  H
  C11      1.0000 0.91330  0.06970  0.27960  Biso   1.000  C
  C12      1.0000 0.91330  0.93030  0.77960  Biso   1.000  C
  H5       1.0000 0.83860  0.05670  0.25780  Biso   1.000  H
  H6       1.0000 0.83860  0.94330  0.75780  Biso   1.000  H
  C13      1.0000 0.94300  0.19790  0.30530  Biso   1.000  C
  C14      1.0000 0.94300  0.80210  0.80530  Biso   1.000  C
  H7       1.0000 0.88680  0.26990  0.30040  Biso   1.000  H
  H8       1.0000 0.88680  0.73010  0.80040  Biso   1.000  H
  C15      1.0000 0.01930  0.49290  0.47290  Biso   1.000  C
  C16      1.0000 0.01930  0.50710  0.97290  Biso   1.000  C
  H9       1.0000 0.96970  0.55570  0.45070  Biso   1.000  H
  H10      1.0000 0.96970  0.44430  0.95070  Biso   1.000  H
  C17      1.0000 0.01910  0.49010  0.52640  Biso   1.000  C
  C18      1.0000 0.01910  0.50990  0.02640  Biso   1.000  C
  C19      1.0000 0.08890  0.39590  0.56030  Biso   1.000  C
  C20      1.0000 0.08890  0.60410  0.06030  Biso   1.000  C
  H11      1.0000 0.08690  0.39190  0.59590  Biso   1.000  H
  H12      1.0000 0.08690  0.60810  0.09590  Biso   1.000  H
  C21      1.0000 0.16280  0.30640  0.53920  Biso   1.000  C
  C22      1.0000 0.16280  0.69360  0.03920  Biso   1.000  C
  H13      1.0000 0.21230  0.24160  0.56050  Biso   1.000  H
  H14      1.0000 0.21230  0.75840  0.06050  Biso   1.000  H
  C23      1.0000 0.16020  0.31730  0.48520  Biso   1.000  C
  C24      1.0000 0.16020  0.68270  0.98520  Biso   1.000  C
  H15      1.0000 0.21040  0.25910  0.47120  Biso   1.000  H
  H16      1.0000 0.21040  0.74090  0.97120  Biso   1.000  H
  C25      1.0000 0.62010  0.11870  0.32970  Biso   1.000  C
  C26      1.0000 0.62010  0.88130  0.82970  Biso   1.000  C
  H17      1.0000 0.69610  0.13330  0.35010  Biso   1.000  H
  H18      1.0000 0.69610  0.86670  0.85010  Biso   1.000  H
  C27      1.0000 0.58800  0.98360  0.30980  Biso   1.000  C
  C28      1.0000 0.58800  0.01640  0.80980  Biso   1.000  C
  C29      1.0000 0.47480  0.96030  0.27980  Biso   1.000  C
  C30      1.0000 0.47480  0.03970  0.77980  Biso   1.000  C
  H19      1.0000 0.45110  0.87020  0.26730  Biso   1.000  H
  H20      1.0000 0.45110  0.12980  0.76730  Biso   1.000  H
  C31      1.0000 0.39750  0.07420  0.26890  Biso   1.000  C
  C32      1.0000 0.39750  0.92580  0.76890  Biso   1.000  C
  H21      1.0000 0.32150  0.06250  0.24810  Biso   1.000  H
  H22      1.0000 0.32150  0.93750  0.74810  Biso   1.000  H
  C33      1.0000 0.43550  0.20550  0.28970  Biso   1.000  C
  C34      1.0000 0.43550  0.79450  0.78970  Biso   1.000  C
  H23      1.0000 0.38310  0.28140  0.28230  Biso   1.000  H
  H24      1.0000 0.38310  0.71860  0.78230  Biso   1.000  H
  C35      1.0000 0.51350  0.23980  0.44300  Biso   1.000  C
  C36      1.0000 0.51350  0.76020  0.94300  Biso   1.000  C
  H25      1.0000 0.45680  0.20950  0.41370  Biso   1.000  H
  H26      1.0000 0.45680  0.79050  0.91370  Biso   1.000  H
  C37      1.0000 0.51340  0.18390  0.49220  Biso   1.000  C
  C38      1.0000 0.51340  0.81610  0.99220  Biso   1.000  C
  C39      1.0000 0.59720  0.22540  0.53590  Biso   1.000  C
  C40      1.0000 0.59720  0.77460  0.03590  Biso   1.000  C
  H27      1.0000 0.59860  0.18680  0.56900  Biso   1.000  H
  H28      1.0000 0.59860  0.81320  0.06900  Biso   1.000  H
  C41      1.0000 0.67910  0.32530  0.52940  Biso   1.000  C
  C42      1.0000 0.67910  0.67470  0.02940  Biso   1.000  C
  H29      1.0000 0.73630  0.35690  0.55830  Biso   1.000  H
  H30      1.0000 0.73630  0.64310  0.05830  Biso   1.000  H
  C43      1.0000 0.67500  0.37830  0.47920  Biso   1.000  C
  C44      1.0000 0.67500  0.62170  0.97920  Biso   1.000  C
  H31      1.0000 0.73090  0.44540  0.47490  Biso   1.000  H
  H32      1.0000 0.73090  0.55460  0.97490  Biso   1.000  H
  S5       1.0000 0.62060  0.07670  0.67064  Biso   1.000  S
  S6       1.0000 0.62060  0.92330  0.17064  Biso   1.000  S
  S7       1.0000 0.12890  0.09080  0.66576  Biso   1.000  S
  S8       1.0000 0.12890  0.90920  0.16576  Biso   1.000  S
  Br9      1.0000 0.38233  0.33909  0.66962  Biso   1.000  Br
  Br10     1.0000 0.38233  0.66091  0.16962  Biso   1.000  Br
  Br11     1.0000 0.88486  0.33442  0.67605  Biso   1.000  Br
  Br12     1.0000 0.88486  0.66558  0.17605  Biso   1.000  Br
  Cu5      1.0000 0.22505  0.91513  0.62711  Biso   1.000  Cu
  Cu6      1.0000 0.22505  0.08487  0.12711  Biso   1.000  Cu
  Cu7      1.0000 0.73727  0.91375  0.64055  Biso   1.000  Cu
  Cu8      1.0000 0.73727  0.08625  0.14055  Biso   1.000  Cu
  N13      1.0000 0.39360  0.95440  0.63700  Biso   1.000  N
  N14      1.0000 0.39360  0.04560  0.13700  Biso   1.000  N
  N15      1.0000 0.89970  0.97270  0.64430  Biso   1.000  N
  N16      1.0000 0.89970  0.02730  0.14430  Biso   1.000  N
  Br13     1.0000 0.86956  0.12502  0.45087  Biso   1.000  Br
  Br14     1.0000 0.86956  0.87498  0.95087  Biso   1.000  Br
  Br15     1.0000 0.40047  0.54629  0.50586  Biso   1.000  Br
  Br16     1.0000 0.40047  0.45371  0.00586  Biso   1.000  Br
  N17      1.0000 0.21220  0.72310  0.66540  Biso   1.000  N
  N18      1.0000 0.21220  0.27690  0.16540  Biso   1.000  N
  N19      1.0000 0.73220  0.72520  0.68290  Biso   1.000  N
  N20      1.0000 0.73220  0.27480  0.18290  Biso   1.000  N
  C45      1.0000 0.48680  0.00450  0.65040  Biso   1.000  C
  C46      1.0000 0.48680  0.99550  0.15040  Biso   1.000  C
  C47      1.0000 0.99450  0.01940  0.65290  Biso   1.000  C
  C48      1.0000 0.99450  0.98060  0.15290  Biso   1.000  C
  N21      1.0000 0.13670  0.90570  0.54820  Biso   1.000  N
  N22      1.0000 0.13670  0.09430  0.04820  Biso   1.000  N
  N23      1.0000 0.66120  0.83480  0.56670  Biso   1.000  N
  N24      1.0000 0.66120  0.16520  0.06670  Biso   1.000  N
  C49      1.0000 0.04800  0.99190  0.52890  Biso   1.000  C
  C50      1.0000 0.04800  0.00810  0.02890  Biso   1.000  C
  H33      1.0000 0.02210  0.05400  0.55190  Biso   1.000  H
  H34      1.0000 0.02210  0.94600  0.05190  Biso   1.000  H
  C51      1.0000 0.28220  0.61530  0.65720  Biso   1.000  C
  C52      1.0000 0.28220  0.38470  0.15720  Biso   1.000  C
  H35      1.0000 0.33160  0.62680  0.63370  Biso   1.000  H
  H36      1.0000 0.33160  0.37320  0.13370  Biso   1.000  H
  C53      1.0000 0.99090  0.99350  0.47490  Biso   1.000  C
  C54      1.0000 0.99090  0.00650  0.97490  Biso   1.000  C
  C55      1.0000 0.28130  0.48610  0.68370  Biso   1.000  C
  C56      1.0000 0.28130  0.51390  0.18370  Biso   1.000  C
  C57      1.0000 0.02830  0.89900  0.44020  Biso   1.000  C
  C58      1.0000 0.02830  0.10100  0.94020  Biso   1.000  C
  H37      1.0000 0.99200  0.89610  0.40440  Biso   1.000  H
  H38      1.0000 0.99200  0.10390  0.90440  Biso   1.000  H
  C59      1.0000 0.20830  0.46480  0.71750  Biso   1.000  C
  C60      1.0000 0.20830  0.53520  0.21750  Biso   1.000  C
  H39      1.0000 0.20640  0.37790  0.73420  Biso   1.000  H
  H40      1.0000 0.20640  0.62210  0.23420  Biso   1.000  H
  C61      1.0000 0.12260  0.80960  0.46190  Biso   1.000  C
  C62      1.0000 0.12260  0.19040  0.96190  Biso   1.000  C
  H41      1.0000 0.14990  0.74410  0.44060  Biso   1.000  H
  H42      1.0000 0.14990  0.25590  0.94060  Biso   1.000  H
  C63      1.0000 0.13650  0.57690  0.72630  Biso   1.000  C
  C64      1.0000 0.13650  0.42310  0.22630  Biso   1.000  C
  H43      1.0000 0.08700  0.56740  0.74990  Biso   1.000  H
  H44      1.0000 0.08700  0.43260  0.24990  Biso   1.000  H
  C65      1.0000 0.17510  0.81840  0.51480  Biso   1.000  C
  C66      1.0000 0.17510  0.18160  0.01480  Biso   1.000  C
  H45      1.0000 0.24030  0.76110  0.52810  Biso   1.000  H
  H46      1.0000 0.24030  0.23890  0.02810  Biso   1.000  H
  C67      1.0000 0.14080  0.70360  0.69900  Biso   1.000  C
  C68      1.0000 0.14080  0.29640  0.19900  Biso   1.000  C
  H47      1.0000 0.09180  0.77770  0.70430  Biso   1.000  H
  H48      1.0000 0.09180  0.22230  0.20430  Biso   1.000  H
  C69      1.0000 0.57500  0.73770  0.56040  Biso   1.000  C
  C70      1.0000 0.57500  0.26230  0.06040  Biso   1.000  C
  H49      1.0000 0.54900  0.70620  0.58990  Biso   1.000  H
  H50      1.0000 0.54900  0.29380  0.08990  Biso   1.000  H
  C71      1.0000 0.80010  0.61790  0.67440  Biso   1.000  C
  C72      1.0000 0.80010  0.38210  0.17440  Biso   1.000  C
  H51      1.0000 0.85980  0.63570  0.65650  Biso   1.000  H
  H52      1.0000 0.85980  0.36430  0.15650  Biso   1.000  H
  C73      1.0000 0.52370  0.68310  0.51130  Biso   1.000  C
  C74      1.0000 0.52370  0.31690  0.01130  Biso   1.000  C
  C75      1.0000 0.78600  0.48180  0.69100  Biso   1.000  C
  C76      1.0000 0.78600  0.51820  0.19100  Biso   1.000  C
  C77      1.0000 0.56030  0.72500  0.46680  Biso   1.000  C
  C78      1.0000 0.56030  0.27500  0.96680  Biso   1.000  C
  H53      1.0000 0.52610  0.68760  0.43370  Biso   1.000  H
  H54      1.0000 0.52610  0.31240  0.93370  Biso   1.000  H
  C79      1.0000 0.69850  0.45220  0.71850  Biso   1.000  C
  C80      1.0000 0.69850  0.54780  0.21850  Biso   1.000  C
  H55      1.0000 0.68780  0.36120  0.73040  Biso   1.000  H
  H56      1.0000 0.68780  0.63880  0.23040  Biso   1.000  H
  C81      1.0000 0.64990  0.82500  0.47300  Biso   1.000  C
  C82      1.0000 0.64990  0.17500  0.97300  Biso   1.000  C
  H57      1.0000 0.67720  0.85730  0.44400  Biso   1.000  H
  H58      1.0000 0.67720  0.14270  0.94400  Biso   1.000  H
  C83      1.0000 0.62870  0.56310  0.72730  Biso   1.000  C
  C84      1.0000 0.62870  0.43690  0.22730  Biso   1.000  C
  H59      1.0000 0.56900  0.54800  0.74550  Biso   1.000  H
  H60      1.0000 0.56900  0.45200  0.24550  Biso   1.000  H
  C85      1.0000 0.69830  0.87620  0.52370  Biso   1.000  C
  C86      1.0000 0.69830  0.12380  0.02370  Biso   1.000  C
  H61      1.0000 0.75930  0.94230  0.52780  Biso   1.000  H
  H62      1.0000 0.75930  0.05770  0.02780  Biso   1.000  H
  C87      1.0000 0.64710  0.69820  0.70910  Biso   1.000  C
  C88      1.0000 0.64710  0.30180  0.20910  Biso   1.000  C
  H63      1.0000 0.59880  0.77210  0.71530  Biso   1.000  H
  H64      1.0000 0.59880  0.22790  0.21530  Biso   1.000  H
