data_image0
_cell_length_a       9.776
_cell_length_b       15.018
_cell_length_c       16.673
_cell_angle_alpha    74.51
_cell_angle_beta     76.8
_cell_angle_gamma    78.27

_symmetry_space_group_name_H-M    "P 1"
_symmetry_int_tables_number       1

loop_
  _symmetry_equiv_pos_as_xyz
  'x, y, z'

loop_
  _atom_site_label
  _atom_site_occupancy
  _atom_site_fract_x
  _atom_site_fract_y
  _atom_site_fract_z
  _atom_site_thermal_displace_type
  _atom_site_B_iso_or_equiv
  _atom_site_type_symbol
  Cu1      1.0000 0.66620  0.50454  0.37142  Biso   1.000  Cu
  Cu2      1.0000 0.33380  0.49546  0.62858  Biso   1.000  Cu
  C1       1.0000 0.78890  0.88890  0.71466  Biso   1.000  C
  C2       1.0000 0.21110  0.11110  0.28534  Biso   1.000  C
  C3       1.0000 0.78730  0.91328  0.79237  Biso   1.000  C
  C4       1.0000 0.21270  0.08672  0.20763  Biso   1.000  C
  C5       1.0000 0.81520  0.81672  0.78784  Biso   1.000  C
  C6       1.0000 0.18480  0.18328  0.21216  Biso   1.000  C
  C7       1.0000 0.76330  0.91472  0.63460  Biso   1.000  C
  C8       1.0000 0.23670  0.08528  0.36540  Biso   1.000  C
  C9       1.0000 0.76500  0.98033  0.83634  Biso   1.000  C
  C10      1.0000 0.23500  0.01967  0.16366  Biso   1.000  C
  C11      1.0000 0.84360  0.72495  0.82550  Biso   1.000  C
  C12      1.0000 0.15640  0.27505  0.17450  Biso   1.000  C
  C13      1.0000 0.74570  0.84364  0.59285  Biso   1.000  C
  C14      1.0000 0.25430  0.15636  0.40715  Biso   1.000  C
  C15      1.0000 0.67580  0.76812  0.63988  Biso   1.000  C
  C16      1.0000 0.32420  0.23188  0.36012  Biso   1.000  C
  H1       1.0000 0.63740  0.76390  0.69830  Biso   1.000  H
  H2       1.0000 0.36260  0.23610  0.30170  Biso   1.000  H
  C17      1.0000 0.66200  0.69962  0.60215  Biso   1.000  C
  C18      1.0000 0.33800  0.30038  0.39785  Biso   1.000  C
  H3       1.0000 0.61460  0.64850  0.63420  Biso   1.000  H
  H4       1.0000 0.38540  0.35150  0.36580  Biso   1.000  H
  C19      1.0000 0.71870  0.70657  0.51654  Biso   1.000  C
  C20      1.0000 0.28130  0.29343  0.48346  Biso   1.000  C
  C21      1.0000 0.70340  0.63642  0.47653  Biso   1.000  C
  C22      1.0000 0.29660  0.36358  0.52347  Biso   1.000  C
  N1       1.0000 0.68920  0.58204  0.44349  Biso   1.000  N
  N2       1.0000 0.31080  0.41796  0.55651  Biso   1.000  N
  C23      1.0000 0.78520  0.78254  0.46757  Biso   1.000  C
  C24      1.0000 0.21480  0.21746  0.53243  Biso   1.000  C
  H5       1.0000 0.82200  0.78700  0.40900  Biso   1.000  H
  H6       1.0000 0.17800  0.21300  0.59100  Biso   1.000  H
  C25      1.0000 0.79670  0.85143  0.50601  Biso   1.000  C
  C26      1.0000 0.20330  0.14857  0.49399  Biso   1.000  C
  H7       1.0000 0.83950  0.90430  0.47320  Biso   1.000  H
  H8       1.0000 0.16050  0.09570  0.52680  Biso   1.000  H
  C27      1.0000 0.74660  0.01386  0.58893  Biso   1.000  C
  C28      1.0000 0.25340  0.98614  0.41107  Biso   1.000  C
  C29      1.0000 0.63700  0.04937  0.54305  Biso   1.000  C
  C30      1.0000 0.36300  0.95063  0.45695  Biso   1.000  C
  H9       1.0000 0.57400  0.00950  0.54160  Biso   1.000  H
  H10      1.0000 0.42600  0.99050  0.45840  Biso   1.000  H
  C31      1.0000 0.61870  0.14221  0.49952  Biso   1.000  C
  C32      1.0000 0.38130  0.85779  0.50048  Biso   1.000  C
  H11      1.0000 0.54380  0.16610  0.46840  Biso   1.000  H
  H12      1.0000 0.45620  0.83390  0.53160  Biso   1.000  H
  C33      1.0000 0.71160  0.20013  0.50205  Biso   1.000  C
  C34      1.0000 0.28840  0.79987  0.49795  Biso   1.000  C
  C35      1.0000 0.69210  0.29651  0.45661  Biso   1.000  C
  C36      1.0000 0.30790  0.70349  0.54339  Biso   1.000  C
  N3       1.0000 0.67676  0.37313  0.42084  Biso   1.000  N
  N4       1.0000 0.32324  0.62687  0.57916  Biso   1.000  N
  C37      1.0000 0.82190  0.16625  0.54807  Biso   1.000  C
  C38      1.0000 0.17810  0.83375  0.45193  Biso   1.000  C
  H13      1.0000 0.88430  0.20640  0.54980  Biso   1.000  H
  H14      1.0000 0.11570  0.79360  0.45020  Biso   1.000  H
  C39      1.0000 0.83870  0.07301  0.59124  Biso   1.000  C
  C40      1.0000 0.16130  0.92699  0.40876  Biso   1.000  C
  H15      1.0000 0.91330  0.04910  0.62260  Biso   1.000  H
  H16      1.0000 0.08670  0.95090  0.37740  Biso   1.000  H
  C41      1.0000 0.71840  0.07895  0.79520  Biso   1.000  C
  C42      1.0000 0.28160  0.92105  0.20480  Biso   1.000  C
  C43      1.0000 0.60270  0.10302  0.75336  Biso   1.000  C
  C44      1.0000 0.39730  0.89698  0.24664  Biso   1.000  C
  H17      1.0000 0.55320  0.05580  0.75090  Biso   1.000  H
  H18      1.0000 0.44680  0.94420  0.24910  Biso   1.000  H
  C45      1.0000 0.56010  0.19568  0.71535  Biso   1.000  C
  C46      1.0000 0.43990  0.80432  0.28465  Biso   1.000  C
  H19      1.0000 0.47990  0.21240  0.68830  Biso   1.000  H
  H20      1.0000 0.52010  0.78760  0.31170  Biso   1.000  H
  C47      1.0000 0.63650  0.26419  0.71721  Biso   1.000  C
  C48      1.0000 0.36350  0.73581  0.28279  Biso   1.000  C
  C49      1.0000 0.59150  0.36024  0.67787  Biso   1.000  C
  C50      1.0000 0.40850  0.63976  0.32213  Biso   1.000  C
  N5       1.0000 0.54840  0.43572  0.64790  Biso   1.000  N
  N6       1.0000 0.45160  0.56428  0.35210  Biso   1.000  N
  C51      1.0000 0.75180  0.24123  0.75815  Biso   1.000  C
  C52      1.0000 0.24820  0.75877  0.24185  Biso   1.000  C
  H21      1.0000 0.80340  0.28820  0.75860  Biso   1.000  H
  H22      1.0000 0.19660  0.71180  0.24140  Biso   1.000  H
  C53      1.0000 0.79090  0.14873  0.79852  Biso   1.000  C
  C54      1.0000 0.20910  0.85127  0.20148  Biso   1.000  C
  H23      1.0000 0.86740  0.13280  0.82860  Biso   1.000  H
  H24      1.0000 0.13260  0.86720  0.17140  Biso   1.000  H
  C55      1.0000 0.78430  0.95779  0.92503  Biso   1.000  C
  C56      1.0000 0.21570  0.04221  0.07497  Biso   1.000  C
  C57      1.0000 0.69310  0.00761  0.98163  Biso   1.000  C
  C58      1.0000 0.30690  0.99239  0.01837  Biso   1.000  C
  H25      1.0000 0.62370  0.05790  0.96170  Biso   1.000  H
  H26      1.0000 0.37630  0.94210  0.03830  Biso   1.000  H
  C59      1.0000 0.70360  0.98409  0.06641  Biso   1.000  C
  C60      1.0000 0.29640  0.01591  0.93359  Biso   1.000  C
  H27      1.0000 0.64050  0.01710  0.10490  Biso   1.000  H
  H28      1.0000 0.35950  0.98290  0.89510  Biso   1.000  H
  C61      1.0000 0.80780  0.91156  0.09462  Biso   1.000  C
  C62      1.0000 0.19220  0.08844  0.90538  Biso   1.000  C
  C63      1.0000 0.81640  0.88490  0.18337  Biso   1.000  C
  C64      1.0000 0.18360  0.11510  0.81663  Biso   1.000  C
  N7       1.0000 0.82400  0.86400  0.25327  Biso   1.000  N
  N8       1.0000 0.17600  0.13600  0.74673  Biso   1.000  N
  C65      1.0000 0.90330  0.86376  0.03877  Biso   1.000  C
  C66      1.0000 0.09670  0.13624  0.96123  Biso   1.000  C
  H29      1.0000 0.97620  0.81590  0.05830  Biso   1.000  H
  H30      1.0000 0.02380  0.18410  0.94170  Biso   1.000  H
  C67      1.0000 0.89030  0.88714  0.95431  Biso   1.000  C
  C68      1.0000 0.10970  0.11286  0.04569  Biso   1.000  C
  H31      1.0000 0.95450  0.85460  0.91590  Biso   1.000  H
  H32      1.0000 0.04550  0.14540  0.08410  Biso   1.000  H
  C69      1.0000 0.83000  0.69559  0.91879  Biso   1.000  C
  C70      1.0000 0.17000  0.30441  0.08121  Biso   1.000  C
  C71      1.0000 0.70650  0.72863  0.97056  Biso   1.000  C
  C72      1.0000 0.29350  0.27137  0.02944  Biso   1.000  C
  H33      1.0000 0.63440  0.77250  0.94560  Biso   1.000  H
  H34      1.0000 0.36560  0.22750  0.05440  Biso   1.000  H
  C73      1.0000 0.68840  0.69790  0.05799  Biso   1.000  C
  C74      1.0000 0.31160  0.30210  0.94201  Biso   1.000  C
  H35      1.0000 0.60350  0.71930  0.09290  Biso   1.000  H
  H36      1.0000 0.39650  0.28070  0.90710  Biso   1.000  H
  C75      1.0000 0.79650  0.63516  0.09396  Biso   1.000  C
  C76      1.0000 0.20350  0.36484  0.90604  Biso   1.000  C
  C77      1.0000 0.77420  0.59686  0.18392  Biso   1.000  C
  C78      1.0000 0.22580  0.40314  0.81608  Biso   1.000  C
  N9       1.0000 0.75110  0.56252  0.25469  Biso   1.000  N
  N10      1.0000 0.24890  0.43748  0.74531  Biso   1.000  N
  C79      1.0000 0.92200  0.60416  0.04331  Biso   1.000  C
  C80      1.0000 0.07800  0.39584  0.95669  Biso   1.000  C
  H37      1.0000 0.99630  0.56310  0.06850  Biso   1.000  H
  H38      1.0000 0.00370  0.43690  0.93150  Biso   1.000  H
  C81      1.0000 0.93770  0.63354  0.95609  Biso   1.000  C
  C82      1.0000 0.06230  0.36646  0.04391  Biso   1.000  C
  H39      1.0000 0.02230  0.61140  0.92130  Biso   1.000  H
  H40      1.0000 0.97770  0.38860  0.07870  Biso   1.000  H
  C83      1.0000 0.87780  0.65289  0.77561  Biso   1.000  C
  C84      1.0000 0.12220  0.34711  0.22439  Biso   1.000  C
  C85      1.0000 0.82420  0.56846  0.80938  Biso   1.000  C
  C86      1.0000 0.17580  0.43154  0.19062  Biso   1.000  C
  H41      1.0000 0.77390  0.55550  0.86610  Biso   1.000  H
  H42      1.0000 0.22610  0.44450  0.13390  Biso   1.000  H
  C87      1.0000 0.84380  0.50334  0.76072  Biso   1.000  C
  C88      1.0000 0.15620  0.49666  0.23928  Biso   1.000  C
  H43      1.0000 0.80560  0.44660  0.78380  Biso   1.000  H
  H44      1.0000 0.19440  0.55340  0.21620  Biso   1.000  H
  C89      1.0000 0.91980  0.52148  0.67782  Biso   1.000  C
  C90      1.0000 0.08020  0.47852  0.32218  Biso   1.000  C
  C91      1.0000 0.93550  0.45426  0.62712  Biso   1.000  C
  C92      1.0000 0.06450  0.54574  0.37288  Biso   1.000  C
  N11      1.0000 0.94460  0.40006  0.58813  Biso   1.000  N
  N12      1.0000 0.05540  0.59994  0.41187  Biso   1.000  N
  C93      1.0000 0.97930  0.60376  0.64436  Biso   1.000  C
  C94      1.0000 0.02070  0.39624  0.35564  Biso   1.000  C
  H45      1.0000 0.03390  0.61510  0.58870  Biso   1.000  H
  H46      1.0000 0.96610  0.38490  0.41130  Biso   1.000  H
  C95      1.0000 0.95800  0.66882  0.69322  Biso   1.000  C
  C96      1.0000 0.04200  0.33118  0.30678  Biso   1.000  C
  H47      1.0000 0.99820  0.72490  0.67060  Biso   1.000  H
  H48      1.0000 0.00180  0.27510  0.32940  Biso   1.000  H
  P1       1.0000 0.30108  0.68290  0.02091  Biso   1.000  P
  P2       1.0000 0.69892  0.31710  0.97909  Biso   1.000  P
  F1       1.0000 0.34622  0.77630  0.02820  Biso   1.000  F
  F2       1.0000 0.65378  0.22370  0.97180  Biso   1.000  F
  F3       1.0000 0.43646  0.67134  0.94836  Biso   1.000  F
  F4       1.0000 0.56354  0.32866  0.05164  Biso   1.000  F
  F5       1.0000 0.20830  0.74130  0.95147  Biso   1.000  F
  F6       1.0000 0.79170  0.25870  0.04853  Biso   1.000  F
  F7       1.0000 0.16378  0.69435  0.09393  Biso   1.000  F
  F8       1.0000 0.83622  0.30565  0.90607  Biso   1.000  F
  F9       1.0000 0.39070  0.62338  0.09217  Biso   1.000  F
  F10      1.0000 0.60930  0.37662  0.90783  Biso   1.000  F
  F11      1.0000 0.25725  0.58833  0.01412  Biso   1.000  F
  F12      1.0000 0.74275  0.41167  0.98588  Biso   1.000  F
  C97      1.0000 0.56820  0.44430  0.17089  Biso   1.000  C
  C98      1.0000 0.43180  0.55570  0.82911  Biso   1.000  C
  H49      1.0000 0.53350  0.48680  0.20920  Biso   1.000  H
  H50      1.0000 0.46650  0.51320  0.79080  Biso   1.000  H
  H51      1.0000 0.48720  0.42420  0.15890  Biso   1.000  H
  H52      1.0000 0.51280  0.57580  0.84110  Biso   1.000  H
  H53      1.0000 0.62240  0.47680  0.11790  Biso   1.000  H
  H54      1.0000 0.37760  0.52320  0.88210  Biso   1.000  H
  N13      1.0000 0.66090  0.36172  0.21122  Biso   1.000  N
  N14      1.0000 0.33910  0.63828  0.78878  Biso   1.000  N
  O1       1.0000 0.78782  0.36391  0.19832  Biso   1.000  O
  O2       1.0000 0.21218  0.63609  0.80168  Biso   1.000  O
  O3       1.0000 0.60510  0.29536  0.25756  Biso   1.000  O
  O4       1.0000 0.39490  0.70464  0.74244  Biso   1.000  O
  C99      1.0000 0.80040  0.11440  0.22210  Biso   1.000  C
  C100     1.0000 0.19960  0.88560  0.77790  Biso   1.000  C
  H55      1.0000 0.80710  0.17260  0.23600  Biso   1.000  H
  H56      1.0000 0.19290  0.82740  0.76400  Biso   1.000  H
  H57      1.0000 0.78480  0.12800  0.16380  Biso   1.000  H
  H58      1.0000 0.21520  0.87200  0.83620  Biso   1.000  H
  H59      1.0000 0.88880  0.07080  0.22770  Biso   1.000  H
  H60      1.0000 0.11120  0.92920  0.77230  Biso   1.000  H
  N15      1.0000 0.68190  0.07280  0.27970  Biso   1.000  N
  N16      1.0000 0.31810  0.92720  0.72030  Biso   1.000  N
  O5       1.0000 0.68380  0.04270  0.35470  Biso   1.000  O
  O6       1.0000 0.31620  0.95730  0.64530  Biso   1.000  O
  O7       1.0000 0.57790  0.07530  0.24900  Biso   1.000  O
  O8       1.0000 0.42210  0.92470  0.75100  Biso   1.000  O
  N17      1.0000 0.75650  0.07220  0.30620  Biso   1.000  N
  N18      1.0000 0.24350  0.92780  0.69380  Biso   1.000  N
  O9       1.0000 0.84470  0.05500  0.34740  Biso   1.000  O
  O10      1.0000 0.15530  0.94500  0.65260  Biso   1.000  O
  C101     1.0000 0.80750  0.10620  0.21940  Biso   1.000  C
  C102     1.0000 0.19250  0.89380  0.78060  Biso   1.000  C
  H61      1.0000 0.87680  0.05740  0.19730  Biso   1.000  H
  H62      1.0000 0.12320  0.94260  0.80270  Biso   1.000  H
  H63      1.0000 0.85320  0.16100  0.21180  Biso   1.000  H
  H64      1.0000 0.14680  0.83900  0.78820  Biso   1.000  H
  H65      1.0000 0.72800  0.12390  0.18880  Biso   1.000  H
  H66      1.0000 0.27200  0.87610  0.81120  Biso   1.000  H
  O11      1.0000 0.63190  0.05400  0.32760  Biso   1.000  O
  O12      1.0000 0.36810  0.94600  0.67240  Biso   1.000  O
