data_image0
_cell_length_a       9.611
_cell_length_b       14.831
_cell_length_c       16.74
_cell_angle_alpha    74.76
_cell_angle_beta     75.04
_cell_angle_gamma    81.55

_symmetry_space_group_name_H-M    "P 1"
_symmetry_int_tables_number       1

loop_
  _symmetry_equiv_pos_as_xyz
  'x, y, z'

loop_
  _atom_site_label
  _atom_site_occupancy
  _atom_site_fract_x
  _atom_site_fract_y
  _atom_site_fract_z
  _atom_site_thermal_displace_type
  _atom_site_B_iso_or_equiv
  _atom_site_type_symbol
  Cu1      1.0000 0.83410  0.99697  0.13448  Biso   1.000  Cu
  Cu2      1.0000 0.16590  0.00303  0.86552  Biso   1.000  Cu
  C1       1.0000 0.72000  0.60967  0.78561  Biso   1.000  C
  C2       1.0000 0.28000  0.39033  0.21439  Biso   1.000  C
  C3       1.0000 0.69060  0.68170  0.71457  Biso   1.000  C
  C4       1.0000 0.30940  0.31830  0.28543  Biso   1.000  C
  C5       1.0000 0.72010  0.58564  0.70809  Biso   1.000  C
  C6       1.0000 0.27990  0.41436  0.29191  Biso   1.000  C
  C7       1.0000 0.74530  0.58433  0.86436  Biso   1.000  C
  C8       1.0000 0.25470  0.41567  0.13564  Biso   1.000  C
  C9       1.0000 0.65650  0.77315  0.67982  Biso   1.000  C
  C10      1.0000 0.34350  0.22685  0.32018  Biso   1.000  C
  C11      1.0000 0.74170  0.51790  0.66460  Biso   1.000  C
  C12      1.0000 0.25830  0.48210  0.33540  Biso   1.000  C
  C13      1.0000 0.76120  0.48451  0.90928  Biso   1.000  C
  C14      1.0000 0.23880  0.51549  0.09072  Biso   1.000  C
  C15      1.0000 0.66750  0.42073  0.90899  Biso   1.000  C
  C16      1.0000 0.33250  0.57927  0.09101  Biso   1.000  C
  H1       1.0000 0.59250  0.44140  0.87920  Biso   1.000  H
  H2       1.0000 0.40750  0.55860  0.12080  Biso   1.000  H
  C17      1.0000 0.68350  0.32759  0.95199  Biso   1.000  C
  C18      1.0000 0.31650  0.67241  0.04801  Biso   1.000  C
  H3       1.0000 0.62010  0.28420  0.95180  Biso   1.000  H
  H4       1.0000 0.37990  0.71580  0.04820  Biso   1.000  H
  C19      1.0000 0.79400  0.29861  0.99539  Biso   1.000  C
  C20      1.0000 0.20600  0.70139  0.00461  Biso   1.000  C
  C21      1.0000 0.81250  0.20321  0.04187  Biso   1.000  C
  C22      1.0000 0.18750  0.79679  0.95813  Biso   1.000  C
  N1       1.0000 0.82800  0.12761  0.08002  Biso   1.000  N
  N2       1.0000 0.17200  0.87239  0.91998  Biso   1.000  N
  C23      1.0000 0.88920  0.36111  0.99524  Biso   1.000  C
  C24      1.0000 0.11080  0.63889  0.00476  Biso   1.000  C
  H5       1.0000 0.96540  0.34030  0.02410  Biso   1.000  H
  H6       1.0000 0.03460  0.65970  0.97590  Biso   1.000  H
  C25      1.0000 0.87100  0.45373  0.95253  Biso   1.000  C
  C26      1.0000 0.12900  0.54627  0.04747  Biso   1.000  C
  H7       1.0000 0.93460  0.49700  0.95270  Biso   1.000  H
  H8       1.0000 0.06540  0.50300  0.04730  Biso   1.000  H
  C27      1.0000 0.76180  0.65566  0.90732  Biso   1.000  C
  C28      1.0000 0.23820  0.34434  0.09268  Biso   1.000  C
  C29      1.0000 0.70950  0.64459  0.99490  Biso   1.000  C
  C30      1.0000 0.29050  0.35541  0.00510  Biso   1.000  C
  H9       1.0000 0.66580  0.58900  0.02780  Biso   1.000  H
  H10      1.0000 0.33420  0.41100  0.97220  Biso   1.000  H
  C31      1.0000 0.72040  0.71350  0.03440  Biso   1.000  C
  C32      1.0000 0.27960  0.28650  0.96560  Biso   1.000  C
  H11      1.0000 0.68270  0.70630  0.09380  Biso   1.000  H
  H12      1.0000 0.31730  0.29370  0.90620  Biso   1.000  H
  C33      1.0000 0.78780  0.79390  0.98520  Biso   1.000  C
  C34      1.0000 0.21220  0.20610  0.01480  Biso   1.000  C
  C35      1.0000 0.80050  0.86450  0.02660  Biso   1.000  C
  C36      1.0000 0.19950  0.13550  0.97340  Biso   1.000  C
  N3       1.0000 0.80970  0.91920  0.06141  Biso   1.000  N
  N4       1.0000 0.19030  0.08080  0.93859  Biso   1.000  N
  C37      1.0000 0.84680  0.80469  0.89860  Biso   1.000  C
  C38      1.0000 0.15320  0.19531  0.10140  Biso   1.000  C
  H13      1.0000 0.89540  0.85870  0.86650  Biso   1.000  H
  H14      1.0000 0.10460  0.14130  0.13350  Biso   1.000  H
  C39      1.0000 0.83370  0.73568  0.85958  Biso   1.000  C
  C40      1.0000 0.16630  0.26432  0.14042  Biso   1.000  C
  H15      1.0000 0.87350  0.74240  0.80040  Biso   1.000  H
  H16      1.0000 0.12650  0.25760  0.19960  Biso   1.000  H
  C41      1.0000 0.62020  0.84421  0.73054  Biso   1.000  C
  C42      1.0000 0.37980  0.15579  0.26946  Biso   1.000  C
  C43      1.0000 0.54810  0.82325  0.81599  Biso   1.000  C
  C44      1.0000 0.45190  0.17675  0.18401  Biso   1.000  C
  H17      1.0000 0.51360  0.76300  0.84130  Biso   1.000  H
  H18      1.0000 0.48640  0.23700  0.15870  Biso   1.000  H
  C45      1.0000 0.52590  0.88880  0.86482  Biso   1.000  C
  C46      1.0000 0.47410  0.11120  0.13518  Biso   1.000  C
  H19      1.0000 0.47680  0.87350  0.92310  Biso   1.000  H
  H20      1.0000 0.52320  0.12650  0.07690  Biso   1.000  H
  C47      1.0000 0.57620  0.97710  0.82774  Biso   1.000  C
  C48      1.0000 0.42380  0.02290  0.17226  Biso   1.000  C
  C49      1.0000 0.56180  0.04540  0.87770  Biso   1.000  C
  C50      1.0000 0.43820  0.95460  0.12230  Biso   1.000  C
  N5       1.0000 0.55470  0.10090  0.91550  Biso   1.000  N
  N6       1.0000 0.44530  0.89910  0.08450  Biso   1.000  N
  C51      1.0000 0.64230  0.00110  0.74140  Biso   1.000  C
  C52      1.0000 0.35770  0.99890  0.25860  Biso   1.000  C
  H21      1.0000 0.67270  0.06230  0.71560  Biso   1.000  H
  H22      1.0000 0.32730  0.93770  0.28440  Biso   1.000  H
  C53      1.0000 0.66320  0.93501  0.69341  Biso   1.000  C
  C54      1.0000 0.33680  0.06499  0.30659  Biso   1.000  C
  H23      1.0000 0.70740  0.95150  0.63440  Biso   1.000  H
  H24      1.0000 0.29260  0.04850  0.36560  Biso   1.000  H
  C55      1.0000 0.66680  0.80392  0.58680  Biso   1.000  C
  C56      1.0000 0.33320  0.19608  0.41320  Biso   1.000  C
  C57      1.0000 0.79120  0.77900  0.53029  Biso   1.000  C
  C58      1.0000 0.20880  0.22100  0.46971  Biso   1.000  C
  H25      1.0000 0.86780  0.74010  0.55140  Biso   1.000  H
  H26      1.0000 0.13220  0.25990  0.44860  Biso   1.000  H
  C59      1.0000 0.80410  0.81070  0.44350  Biso   1.000  C
  C60      1.0000 0.19590  0.18930  0.55650  Biso   1.000  C
  H27      1.0000 0.88950  0.79400  0.40490  Biso   1.000  H
  H28      1.0000 0.11050  0.20600  0.59510  Biso   1.000  H
  C61      1.0000 0.69090  0.86730  0.41310  Biso   1.000  C
  C62      1.0000 0.30910  0.13270  0.58690  Biso   1.000  C
  C63      1.0000 0.70960  0.90710  0.32310  Biso   1.000  C
  C64      1.0000 0.29040  0.09290  0.67690  Biso   1.000  C
  N7       1.0000 0.73350  0.94190  0.25236  Biso   1.000  N
  N8       1.0000 0.26650  0.05810  0.74764  Biso   1.000  N
  C65      1.0000 0.56360  0.89060  0.46890  Biso   1.000  C
  C66      1.0000 0.43640  0.10940  0.53110  Biso   1.000  C
  H29      1.0000 0.48550  0.92730  0.44760  Biso   1.000  H
  H30      1.0000 0.51450  0.07270  0.55240  Biso   1.000  H
  C67      1.0000 0.55250  0.85950  0.55570  Biso   1.000  C
  C68      1.0000 0.44750  0.14050  0.44430  Biso   1.000  C
  H31      1.0000 0.46700  0.87590  0.59430  Biso   1.000  H
  H32      1.0000 0.53300  0.12410  0.40570  Biso   1.000  H
  C69      1.0000 0.71900  0.53640  0.57763  Biso   1.000  C
  C70      1.0000 0.28100  0.46360  0.42237  Biso   1.000  C
  C71      1.0000 0.61460  0.60410  0.55050  Biso   1.000  C
  C72      1.0000 0.38540  0.39590  0.44950  Biso   1.000  C
  H33      1.0000 0.55410  0.63820  0.58920  Biso   1.000  H
  H34      1.0000 0.44590  0.36180  0.41080  Biso   1.000  H
  C73      1.0000 0.59730  0.62310  0.46760  Biso   1.000  C
  C74      1.0000 0.40270  0.37690  0.53240  Biso   1.000  C
  H35      1.0000 0.52600  0.67000  0.44940  Biso   1.000  H
  H36      1.0000 0.47400  0.33000  0.55060  Biso   1.000  H
  C75      1.0000 0.68570  0.57230  0.41180  Biso   1.000  C
  C76      1.0000 0.31430  0.42770  0.58820  Biso   1.000  C
  C77      1.0000 0.67310  0.59300  0.32460  Biso   1.000  C
  C78      1.0000 0.32690  0.40700  0.67540  Biso   1.000  C
  N9       1.0000 0.66360  0.61090  0.25570  Biso   1.000  N
  N10      1.0000 0.33640  0.38910  0.74430  Biso   1.000  N
  C79      1.0000 0.78830  0.50250  0.43830  Biso   1.000  C
  C80      1.0000 0.21170  0.49750  0.56170  Biso   1.000  C
  H37      1.0000 0.84720  0.46750  0.40000  Biso   1.000  H
  H38      1.0000 0.15280  0.53250  0.60000  Biso   1.000  H
  C81      1.0000 0.80410  0.48420  0.52090  Biso   1.000  C
  C82      1.0000 0.19590  0.51580  0.47910  Biso   1.000  C
  H39      1.0000 0.87330  0.43590  0.53950  Biso   1.000  H
  H40      1.0000 0.12670  0.56410  0.46050  Biso   1.000  H
  C83      1.0000 0.78990  0.42084  0.70484  Biso   1.000  C
  C84      1.0000 0.21010  0.57916  0.29516  Biso   1.000  C
  C85      1.0000 0.71640  0.34660  0.70460  Biso   1.000  C
  C86      1.0000 0.28360  0.65340  0.29540  Biso   1.000  C
  H41      1.0000 0.63750  0.35870  0.67780  Biso   1.000  H
  H42      1.0000 0.36250  0.64130  0.32220  Biso   1.000  H
  C87      1.0000 0.75710  0.25560  0.74300  Biso   1.000  C
  C88      1.0000 0.24290  0.74440  0.25700  Biso   1.000  C
  H43      1.0000 0.70480  0.20550  0.74420  Biso   1.000  H
  H44      1.0000 0.29520  0.79450  0.25580  Biso   1.000  H
  C89      1.0000 0.87500  0.23790  0.77990  Biso   1.000  C
  C90      1.0000 0.12500  0.76210  0.22010  Biso   1.000  C
  C91      1.0000 0.91940  0.14270  0.81750  Biso   1.000  C
  C92      1.0000 0.08060  0.85730  0.18250  Biso   1.000  C
  N11      1.0000 0.96120  0.06770  0.84560  Biso   1.000  N
  N12      1.0000 0.03880  0.93230  0.15440  Biso   1.000  N
  C93      1.0000 0.95220  0.31080  0.77910  Biso   1.000  C
  C94      1.0000 0.04780  0.68920  0.22090  Biso   1.000  C
  H45      1.0000 0.03430  0.29810  0.80320  Biso   1.000  H
  H46      1.0000 0.96570  0.70190  0.19680  Biso   1.000  H
  C95      1.0000 0.90760  0.40219  0.74265  Biso   1.000  C
  C96      1.0000 0.09240  0.59781  0.25735  Biso   1.000  C
  H47      1.0000 0.95770  0.45250  0.74340  Biso   1.000  H
  H48      1.0000 0.04230  0.54750  0.25660  Biso   1.000  H
  F1       1.0000 0.35930  0.78971  0.39937  Biso   1.000  F
  F2       1.0000 0.64070  0.21029  0.60063  Biso   1.000  F
  B1       1.0000 0.23810  0.79850  0.46400  Biso   1.000  B
  B2       1.0000 0.76190  0.20150  0.53600  Biso   1.000  B
  F3       1.0000 0.28010  0.74110  0.54000  Biso   1.000  F
  F4       1.0000 0.71990  0.25890  0.46000  Biso   1.000  F
  F5       1.0000 0.22440  0.88960  0.47550  Biso   1.000  F
  F6       1.0000 0.77560  0.11040  0.52450  Biso   1.000  F
  F7       1.0000 0.12630  0.76860  0.45380  Biso   1.000  F
  F8       1.0000 0.87370  0.23140  0.54620  Biso   1.000  F
  F9       1.0000 0.24980  0.81140  0.53130  Biso   1.000  F
  F10      1.0000 0.75020  0.18860  0.46870  Biso   1.000  F
  F11      1.0000 0.14510  0.87860  0.42180  Biso   1.000  F
  F12      1.0000 0.85490  0.12140  0.57820  Biso   1.000  F
  F13      1.0000 0.14400  0.72950  0.48060  Biso   1.000  F
  F14      1.0000 0.85600  0.27050  0.51940  Biso   1.000  F
  C97      1.0000 0.04060  0.98170  0.60240  Biso   1.000  C
  C98      1.0000 0.95940  0.01830  0.39760  Biso   1.000  C
  H49      1.0000 0.00170  0.02850  0.63600  Biso   1.000  H
  H50      1.0000 0.99830  0.97150  0.36400  Biso   1.000  H
  H51      1.0000 0.96910  0.97460  0.57250  Biso   1.000  H
  H52      1.0000 0.03090  0.02540  0.42750  Biso   1.000  H
  H53      1.0000 0.12930  0.00210  0.56080  Biso   1.000  H
  H54      1.0000 0.87070  0.99790  0.43920  Biso   1.000  H
  N13      1.0000 0.07080  0.89830  0.65470  Biso   1.000  N
  N14      1.0000 0.92920  0.10170  0.34530  Biso   1.000  N
  O1       1.0000 0.17050  0.87600  0.69450  Biso   1.000  O
  O2       1.0000 0.82950  0.12400  0.30550  Biso   1.000  O
  O3       1.0000 0.99170  0.83070  0.66150  Biso   1.000  O
  O4       1.0000 0.00830  0.16930  0.33850  Biso   1.000  O
  C99      1.0000 0.28140  0.66550  0.72850  Biso   1.000  C
  C100     1.0000 0.71860  0.33450  0.27150  Biso   1.000  C
  H55      1.0000 0.37690  0.68930  0.71340  Biso   1.000  H
  H56      1.0000 0.62310  0.31070  0.28660  Biso   1.000  H
  H57      1.0000 0.20640  0.71660  0.73750  Biso   1.000  H
  H58      1.0000 0.79360  0.28340  0.26250  Biso   1.000  H
  H59      1.0000 0.26960  0.64030  0.68230  Biso   1.000  H
  H60      1.0000 0.73040  0.35970  0.31770  Biso   1.000  H
  N15      1.0000 0.26860  0.59220  0.80540  Biso   1.000  N
  N16      1.0000 0.73140  0.40780  0.19460  Biso   1.000  N
  O5       1.0000 0.15490  0.55450  0.83670  Biso   1.000  O
  O6       1.0000 0.84510  0.44550  0.16330  Biso   1.000  O
  O7       1.0000 0.36890  0.57580  0.83930  Biso   1.000  O
  O8       1.0000 0.63110  0.42420  0.16070  Biso   1.000  O
  O9       1.0000 0.08190  0.58160  0.75160  Biso   1.000  O
  O10      1.0000 0.91810  0.41840  0.24840  Biso   1.000  O
  N17      1.0000 0.18000  0.59100  0.77750  Biso   1.000  N
  N18      1.0000 0.82000  0.40900  0.22250  Biso   1.000  N
  C101     1.0000 0.29200  0.63800  0.71600  Biso   1.000  C
  C102     1.0000 0.70800  0.36200  0.28400  Biso   1.000  C
  H61      1.0000 0.37320  0.59250  0.70060  Biso   1.000  H
  H62      1.0000 0.62680  0.40750  0.29940  Biso   1.000  H
  H63      1.0000 0.32480  0.68360  0.73870  Biso   1.000  H
  H64      1.0000 0.67520  0.31640  0.26130  Biso   1.000  H
  H65      1.0000 0.25690  0.67110  0.66490  Biso   1.000  H
  H66      1.0000 0.74310  0.32890  0.33510  Biso   1.000  H
  O11      1.0000 0.20500  0.55900  0.84570  Biso   1.000  O
  O12      1.0000 0.79500  0.44100  0.15430  Biso   1.000  O
