data_image0
_cell_length_a       5.8132
_cell_length_b       7.9619
_cell_length_c       8.2074
_cell_angle_alpha    67.801
_cell_angle_beta     74.775
_cell_angle_gamma    83.256

_symmetry_space_group_name_H-M    "P 1"
_symmetry_int_tables_number       1

loop_
  _symmetry_equiv_pos_as_xyz
  'x, y, z'

loop_
  _atom_site_label
  _atom_site_occupancy
  _atom_site_fract_x
  _atom_site_fract_y
  _atom_site_fract_z
  _atom_site_thermal_displace_type
  _atom_site_B_iso_or_equiv
  _atom_site_type_symbol
  Cu1      1.0000 0.22718  0.86952  0.11684  Biso   1.000  Cu
  Cu2      1.0000 0.77282  0.13048  0.88316  Biso   1.000  Cu
  N1       1.0000 0.92510  0.19910  0.60010  Biso   1.000  N
  N2       1.0000 0.07490  0.80090  0.39990  Biso   1.000  N
  N3       1.0000 0.61230  0.60020  0.20520  Biso   1.000  N
  N4       1.0000 0.38770  0.39980  0.79480  Biso   1.000  N
  N5       1.0000 0.56580  0.77040  0.09990  Biso   1.000  N
  N6       1.0000 0.43420  0.22960  0.90010  Biso   1.000  N
  N7       1.0000 0.76590  0.86370  0.02940  Biso   1.000  N
  N8       1.0000 0.23410  0.13630  0.97060  Biso   1.000  N
  N9       1.0000 0.94590  0.75500  0.08830  Biso   1.000  N
  N10      1.0000 0.05410  0.24500  0.91170  Biso   1.000  N
  C1       1.0000 0.83690  0.34070  0.48190  Biso   1.000  C
  C2       1.0000 0.16310  0.65930  0.51810  Biso   1.000  C
  H1       1.0000 0.68250  0.38080  0.51990  Biso   1.000  H
  H2       1.0000 0.31750  0.61920  0.48010  Biso   1.000  H
  C3       1.0000 0.96090  0.43180  0.30600  Biso   1.000  C
  C4       1.0000 0.03910  0.56820  0.69400  Biso   1.000  C
  C5       1.0000 0.18600  0.37370  0.24760  Biso   1.000  C
  C6       1.0000 0.81400  0.62630  0.75240  Biso   1.000  C
  H3       1.0000 0.27410  0.43250  0.13030  Biso   1.000  H
  H4       1.0000 0.72590  0.56750  0.86970  Biso   1.000  H
  C7       1.0000 0.28110  0.22470  0.36700  Biso   1.000  C
  C8       1.0000 0.71890  0.77530  0.63300  Biso   1.000  C
  H5       1.0000 0.43350  0.18060  0.33060  Biso   1.000  H
  H6       1.0000 0.56650  0.81940  0.66940  Biso   1.000  H
  C9       1.0000 0.14610  0.14330  0.54010  Biso   1.000  C
  C10      1.0000 0.85390  0.85670  0.45990  Biso   1.000  C
  H7       1.0000 0.21200  0.04440  0.61960  Biso   1.000  H
  H8       1.0000 0.78800  0.95560  0.38040  Biso   1.000  H
  C11      1.0000 0.84530  0.59470  0.19520  Biso   1.000  C
  C12      1.0000 0.15470  0.40530  0.80480  Biso   1.000  C
