data_image0
_cell_length_a       9.022
_cell_length_b       10.445
_cell_length_c       12.295
_cell_angle_alpha    71.225
_cell_angle_beta     75.08
_cell_angle_gamma    70.25

_symmetry_space_group_name_H-M    "P 1"
_symmetry_int_tables_number       1

loop_
  _symmetry_equiv_pos_as_xyz
  'x, y, z'

loop_
  _atom_site_label
  _atom_site_occupancy
  _atom_site_fract_x
  _atom_site_fract_y
  _atom_site_fract_z
  _atom_site_thermal_displace_type
  _atom_site_B_iso_or_equiv
  _atom_site_type_symbol
  Cu1      1.0000 0.30222  0.56670  0.08071  Biso   1.000  Cu
  Cu2      1.0000 0.69778  0.43330  0.91929  Biso   1.000  Cu
  Cu3      1.0000 0.97095  0.90149  0.41367  Biso   1.000  Cu
  Cu4      1.0000 0.02905  0.09851  0.58633  Biso   1.000  Cu
  Cu5      1.0000 0.36442  0.76565  0.25352  Biso   1.000  Cu
  Cu6      1.0000 0.63558  0.23435  0.74648  Biso   1.000  Cu
  N1       1.0000 0.64630  0.75540  0.06560  Biso   1.000  N
  N2       1.0000 0.35370  0.24460  0.93440  Biso   1.000  N
  N3       1.0000 0.51690  0.68140  0.38210  Biso   1.000  N
  N4       1.0000 0.48310  0.31860  0.61790  Biso   1.000  N
  N5       1.0000 0.62120  0.62600  0.96680  Biso   1.000  N
  N6       1.0000 0.37880  0.37400  0.03320  Biso   1.000  N
  N7       1.0000 0.80920  0.00570  0.29040  Biso   1.000  N
  N8       1.0000 0.19080  0.99430  0.70960  Biso   1.000  N
  N9       1.0000 0.02720  0.57250  0.27170  Biso   1.000  N
  N10      1.0000 0.97280  0.42750  0.72830  Biso   1.000  N
  N11      1.0000 0.13860  0.66640  0.96280  Biso   1.000  N
  N12      1.0000 0.86140  0.33360  0.03720  Biso   1.000  N
  N13      1.0000 0.30940  0.08990  0.39630  Biso   1.000  N
  N14      1.0000 0.69060  0.91010  0.60370  Biso   1.000  N
  N15      1.0000 0.04750  0.71460  0.36270  Biso   1.000  N
  N16      1.0000 0.95250  0.28540  0.63730  Biso   1.000  N
  N17      1.0000 0.50460  0.73050  0.09580  Biso   1.000  N
  N18      1.0000 0.49540  0.26950  0.90420  Biso   1.000  N
  N19      1.0000 0.29580  0.94460  0.30320  Biso   1.000  N
  N20      1.0000 0.70420  0.05540  0.69680  Biso   1.000  N
  N21      1.0000 0.16750  0.06720  0.43310  Biso   1.000  N
  N22      1.0000 0.83250  0.93280  0.56690  Biso   1.000  N
  N23      1.0000 0.17960  0.60280  0.23780  Biso   1.000  N
  N24      1.0000 0.82040  0.39720  0.76220  Biso   1.000  N
  N25      1.0000 0.18300  0.68160  0.29570  Biso   1.000  N
  N26      1.0000 0.81700  0.31840  0.70430  Biso   1.000  N
  N27      1.0000 0.48920  0.64770  0.04130  Biso   1.000  N
  N28      1.0000 0.51080  0.35230  0.95870  Biso   1.000  N
  N29      1.0000 0.15280  0.98720  0.37420  Biso   1.000  N
  N30      1.0000 0.84720  0.01280  0.62580  Biso   1.000  N
  C1       1.0000 0.19670  0.66240  0.84600  Biso   1.000  C
  C2       1.0000 0.80330  0.33760  0.15400  Biso   1.000  C
  H1       1.0000 0.30550  0.64860  0.81830  Biso   1.000  H
  H2       1.0000 0.69450  0.35140  0.18170  Biso   1.000  H
  C3       1.0000 0.46910  0.67730  0.49360  Biso   1.000  C
  C4       1.0000 0.53090  0.32270  0.50640  Biso   1.000  C
  H3       1.0000 0.36130  0.69340  0.52580  Biso   1.000  H
  H4       1.0000 0.63870  0.30660  0.47420  Biso   1.000  H
  C5       1.0000 0.85420  0.99640  0.18180  Biso   1.000  C
  C6       1.0000 0.14580  0.00360  0.81820  Biso   1.000  C
  H5       1.0000 0.96360  0.97940  0.15530  Biso   1.000  H
  H6       1.0000 0.03640  0.02060  0.84470  Biso   1.000  H
  C7       1.0000 0.54810  0.02930  0.25090  Biso   1.000  C
  C8       1.0000 0.45190  0.97070  0.74910  Biso   1.000  C
  C9       1.0000 0.60490  0.02480  0.13890  Biso   1.000  C
  C10      1.0000 0.39510  0.97520  0.86110  Biso   1.000  C
  H7       1.0000 0.53620  0.03310  0.09060  Biso   1.000  H
  H8       1.0000 0.46380  0.96690  0.90940  Biso   1.000  H
  C11      1.0000 0.64980  0.00350  0.33530  Biso   1.000  C
  C12      1.0000 0.35020  0.99650  0.66470  Biso   1.000  C
  H9       1.0000 0.61100  0.98640  0.41480  Biso   1.000  H
  H10      1.0000 0.38900  0.01360  0.58520  Biso   1.000  H
  C13      1.0000 0.71120  0.68150  0.98960  Biso   1.000  C
  C14      1.0000 0.28880  0.31850  0.01040  Biso   1.000  C
  C15      1.0000 0.95610  0.64080  0.35280  Biso   1.000  C
  C16      1.0000 0.04390  0.35920  0.64720  Biso   1.000  C
  C17      1.0000 0.87580  0.69160  0.92300  Biso   1.000  C
  C18      1.0000 0.12420  0.30840  0.07700  Biso   1.000  C
  C19      1.0000 0.37780  0.01860  0.31340  Biso   1.000  C
  C20      1.0000 0.62220  0.98140  0.68660  Biso   1.000  C
  C21      1.0000 0.77580  0.65420  0.40580  Biso   1.000  C
  C22      1.0000 0.22420  0.34580  0.59420  Biso   1.000  C
  C23      1.0000 0.76260  0.00830  0.09750  Biso   1.000  C
  C24      1.0000 0.23740  0.99170  0.90250  Biso   1.000  C
  H11      1.0000 0.80770  0.00490  0.02100  Biso   1.000  H
  H12      1.0000 0.19230  0.99510  0.97900  Biso   1.000  H
  C25      1.0000 0.68360  0.67120  0.34110  Biso   1.000  C
  C26      1.0000 0.31640  0.32880  0.65890  Biso   1.000  C
  H13      1.0000 0.72330  0.67770  0.26240  Biso   1.000  H
  H14      1.0000 0.27670  0.32230  0.73760  Biso   1.000  H
  C27      1.0000 0.10130  0.67750  0.77410  Biso   1.000  C
  C28      1.0000 0.89870  0.32250  0.22590  Biso   1.000  C
  H15      1.0000 0.14620  0.68080  0.69650  Biso   1.000  H
  H16      1.0000 0.85380  0.31920  0.30350  Biso   1.000  H
  C29      1.0000 0.58020  0.64910  0.55990  Biso   1.000  C
  C30      1.0000 0.41980  0.35090  0.44010  Biso   1.000  C
  H17      1.0000 0.54580  0.63390  0.63990  Biso   1.000  H
  H18      1.0000 0.45420  0.36610  0.36010  Biso   1.000  H
  C31      1.0000 0.93890  0.68890  0.80660  Biso   1.000  C
  C32      1.0000 0.06110  0.31110  0.19340  Biso   1.000  C
  H19      1.0000 0.87650  0.69450  0.75480  Biso   1.000  H
  H20      1.0000 0.12350  0.30550  0.24520  Biso   1.000  H
  C33      1.0000 0.98840  0.67570  0.99300  Biso   1.000  C
  C34      1.0000 0.01160  0.32430  0.00700  Biso   1.000  C
  H21      1.0000 0.94750  0.67170  0.07130  Biso   1.000  H
  H22      1.0000 0.05250  0.32830  0.92870  Biso   1.000  H
  C35      1.0000 0.73390  0.64110  0.52170  Biso   1.000  C
  C36      1.0000 0.26610  0.35890  0.47830  Biso   1.000  C
  H23      1.0000 0.80520  0.62790  0.56970  Biso   1.000  H
  H24      1.0000 0.19480  0.37210  0.43030  Biso   1.000  H
