data_image0
_cell_length_a       7.737
_cell_length_b       14.866
_cell_length_c       27.64
_cell_angle_alpha    90
_cell_angle_beta     90
_cell_angle_gamma    90

_symmetry_space_group_name_H-M    "P 1"
_symmetry_int_tables_number       1

loop_
  _symmetry_equiv_pos_as_xyz
  'x, y, z'

loop_
  _atom_site_label
  _atom_site_occupancy
  _atom_site_fract_x
  _atom_site_fract_y
  _atom_site_fract_z
  _atom_site_thermal_displace_type
  _atom_site_B_iso_or_equiv
  _atom_site_type_symbol
  Cu1      1.0000 0.40317  0.30631  0.69782  Biso   1.000  Cu
  Cu2      1.0000 0.09683  0.69369  0.19782  Biso   1.000  Cu
  Cu3      1.0000 0.59683  0.80631  0.80218  Biso   1.000  Cu
  Cu4      1.0000 0.90317  0.19369  0.30218  Biso   1.000  Cu
  Cu5      1.0000 0.59683  0.69369  0.30218  Biso   1.000  Cu
  Cu6      1.0000 0.90317  0.30631  0.80218  Biso   1.000  Cu
  Cu7      1.0000 0.40317  0.19369  0.19782  Biso   1.000  Cu
  Cu8      1.0000 0.09683  0.80631  0.69782  Biso   1.000  Cu
  S1       1.0000 0.29226  0.43187  0.78740  Biso   1.000  S
  S2       1.0000 0.20774  0.56813  0.28740  Biso   1.000  S
  S3       1.0000 0.70774  0.93187  0.71260  Biso   1.000  S
  S4       1.0000 0.79226  0.06813  0.21260  Biso   1.000  S
  S5       1.0000 0.70774  0.56813  0.21260  Biso   1.000  S
  S6       1.0000 0.79226  0.43187  0.71260  Biso   1.000  S
  S7       1.0000 0.29226  0.06813  0.28740  Biso   1.000  S
  S8       1.0000 0.20774  0.93187  0.78740  Biso   1.000  S
  S9       1.0000 0.50569  0.16333  0.59507  Biso   1.000  S
  S10      1.0000 0.99431  0.83667  0.09507  Biso   1.000  S
  S11      1.0000 0.49431  0.66333  0.90493  Biso   1.000  S
  S12      1.0000 0.00569  0.33667  0.40493  Biso   1.000  S
  S13      1.0000 0.49431  0.83667  0.40493  Biso   1.000  S
  S14      1.0000 0.00569  0.16333  0.90493  Biso   1.000  S
  S15      1.0000 0.50569  0.33667  0.09507  Biso   1.000  S
  S16      1.0000 0.99431  0.66333  0.59507  Biso   1.000  S
  O1       1.0000 0.46540  0.44177  0.80695  Biso   1.000  O
  O2       1.0000 0.03460  0.55823  0.30695  Biso   1.000  O
  O3       1.0000 0.53460  0.94177  0.69305  Biso   1.000  O
  O4       1.0000 0.96540  0.05823  0.19305  Biso   1.000  O
  O5       1.0000 0.53460  0.55823  0.19305  Biso   1.000  O
  O6       1.0000 0.96540  0.44177  0.69305  Biso   1.000  O
  O7       1.0000 0.46540  0.05823  0.30695  Biso   1.000  O
  O8       1.0000 0.03460  0.94177  0.80695  Biso   1.000  O
  O9       1.0000 0.20870  0.34793  0.80055  Biso   1.000  O
  O10      1.0000 0.29130  0.65207  0.30055  Biso   1.000  O
  O11      1.0000 0.79130  0.84793  0.69945  Biso   1.000  O
  O12      1.0000 0.70870  0.15207  0.19945  Biso   1.000  O
  O13      1.0000 0.79130  0.65207  0.19945  Biso   1.000  O
  O14      1.0000 0.70870  0.34793  0.69945  Biso   1.000  O
  O15      1.0000 0.20870  0.15207  0.30055  Biso   1.000  O
  O16      1.0000 0.29130  0.84793  0.80055  Biso   1.000  O
  O17      1.0000 0.18160  0.50940  0.79469  Biso   1.000  O
  O18      1.0000 0.31840  0.49060  0.29469  Biso   1.000  O
  O19      1.0000 0.81840  0.00940  0.70531  Biso   1.000  O
  O20      1.0000 0.68160  0.99060  0.20531  Biso   1.000  O
  O21      1.0000 0.81840  0.49060  0.20531  Biso   1.000  O
  O22      1.0000 0.68160  0.50940  0.70531  Biso   1.000  O
  O23      1.0000 0.18160  0.99060  0.29469  Biso   1.000  O
  O24      1.0000 0.31840  0.00940  0.79469  Biso   1.000  O
  N1       1.0000 0.37710  0.32619  0.62686  Biso   1.000  N
  N2       1.0000 0.12290  0.67381  0.12686  Biso   1.000  N
  N3       1.0000 0.62290  0.82619  0.87314  Biso   1.000  N
  N4       1.0000 0.87710  0.17381  0.37314  Biso   1.000  N
  N5       1.0000 0.62290  0.67381  0.37314  Biso   1.000  N
  N6       1.0000 0.87710  0.32619  0.87314  Biso   1.000  N
  N7       1.0000 0.37710  0.17381  0.12686  Biso   1.000  N
  N8       1.0000 0.12290  0.82619  0.62686  Biso   1.000  N
  N9       1.0000 0.32450  0.42407  0.72642  Biso   1.000  N
  N10      1.0000 0.17550  0.57593  0.22642  Biso   1.000  N
  N11      1.0000 0.67550  0.92407  0.77358  Biso   1.000  N
  N12      1.0000 0.82450  0.07593  0.27358  Biso   1.000  N
  N13      1.0000 0.67550  0.57593  0.27358  Biso   1.000  N
  N14      1.0000 0.82450  0.42407  0.77358  Biso   1.000  N
  N15      1.0000 0.32450  0.07593  0.22642  Biso   1.000  N
  N16      1.0000 0.17550  0.92407  0.72642  Biso   1.000  N
  N17      1.0000 0.37600  0.31146  0.54932  Biso   1.000  N
  N18      1.0000 0.12400  0.68854  0.04932  Biso   1.000  N
  N19      1.0000 0.62400  0.81146  0.95068  Biso   1.000  N
  N20      1.0000 0.87600  0.18854  0.45068  Biso   1.000  N
  N21      1.0000 0.62400  0.68854  0.45068  Biso   1.000  N
  N22      1.0000 0.87600  0.31146  0.95068  Biso   1.000  N
  N23      1.0000 0.37600  0.18854  0.04932  Biso   1.000  N
  N24      1.0000 0.12400  0.81146  0.54932  Biso   1.000  N
  N25      1.0000 0.31370  0.40336  0.60626  Biso   1.000  N
  N26      1.0000 0.18630  0.59664  0.10626  Biso   1.000  N
  N27      1.0000 0.68630  0.90336  0.89374  Biso   1.000  N
  N28      1.0000 0.81370  0.09664  0.39374  Biso   1.000  N
  N29      1.0000 0.68630  0.59664  0.39374  Biso   1.000  N
  N30      1.0000 0.81370  0.40336  0.89374  Biso   1.000  N
  N31      1.0000 0.31370  0.09664  0.10626  Biso   1.000  N
  N32      1.0000 0.18630  0.90336  0.60626  Biso   1.000  N
  N33      1.0000 0.31290  0.39570  0.55964  Biso   1.000  N
  N34      1.0000 0.18710  0.60430  0.05964  Biso   1.000  N
  N35      1.0000 0.68710  0.89570  0.94036  Biso   1.000  N
  N36      1.0000 0.81290  0.10430  0.44036  Biso   1.000  N
  N37      1.0000 0.68710  0.60430  0.44036  Biso   1.000  N
  N38      1.0000 0.81290  0.39570  0.94036  Biso   1.000  N
  N39      1.0000 0.31290  0.10430  0.05964  Biso   1.000  N
  N40      1.0000 0.18710  0.89570  0.55964  Biso   1.000  N
  C1       1.0000 0.44720  0.17129  0.69514  Biso   1.000  C
  C2       1.0000 0.05280  0.82871  0.19514  Biso   1.000  C
  C3       1.0000 0.55280  0.67129  0.80486  Biso   1.000  C
  C4       1.0000 0.94720  0.32871  0.30486  Biso   1.000  C
  C5       1.0000 0.55280  0.82871  0.30486  Biso   1.000  C
  C6       1.0000 0.94720  0.17129  0.80486  Biso   1.000  C
  C7       1.0000 0.44720  0.32871  0.19514  Biso   1.000  C
  C8       1.0000 0.05280  0.67129  0.69514  Biso   1.000  C
  H1       1.0000 0.33180  0.15630  0.68660  Biso   1.000  H
  H2       1.0000 0.16820  0.84370  0.18660  Biso   1.000  H
  H3       1.0000 0.66820  0.65630  0.81340  Biso   1.000  H
  H4       1.0000 0.83180  0.34370  0.31340  Biso   1.000  H
  H5       1.0000 0.66820  0.84370  0.31340  Biso   1.000  H
  H6       1.0000 0.83180  0.15630  0.81340  Biso   1.000  H
  H7       1.0000 0.33180  0.34370  0.18660  Biso   1.000  H
  H8       1.0000 0.16820  0.65630  0.68660  Biso   1.000  H
  C9       1.0000 0.47720  0.20114  0.74123  Biso   1.000  C
  C10      1.0000 0.02280  0.79886  0.24123  Biso   1.000  C
  C11      1.0000 0.52280  0.70114  0.75877  Biso   1.000  C
  C12      1.0000 0.97720  0.29886  0.25877  Biso   1.000  C
  C13      1.0000 0.52280  0.79886  0.25877  Biso   1.000  C
  C14      1.0000 0.97720  0.20114  0.75877  Biso   1.000  C
  C15      1.0000 0.47720  0.29886  0.24123  Biso   1.000  C
  C16      1.0000 0.02280  0.70114  0.74123  Biso   1.000  C
  H9       1.0000 0.59110  0.21670  0.75100  Biso   1.000  H
  H10      1.0000 0.90890  0.78330  0.25100  Biso   1.000  H
  H11      1.0000 0.40890  0.71670  0.74900  Biso   1.000  H
  H12      1.0000 0.09110  0.28330  0.24900  Biso   1.000  H
  H13      1.0000 0.40890  0.78330  0.24900  Biso   1.000  H
  H14      1.0000 0.09110  0.21670  0.74900  Biso   1.000  H
  H15      1.0000 0.59110  0.28330  0.25100  Biso   1.000  H
  H16      1.0000 0.90890  0.71670  0.75100  Biso   1.000  H
  H17      1.0000 0.38410  0.20630  0.76350  Biso   1.000  H
  H18      1.0000 0.11590  0.79370  0.26350  Biso   1.000  H
  H19      1.0000 0.61590  0.70630  0.73650  Biso   1.000  H
  H20      1.0000 0.88410  0.29370  0.23650  Biso   1.000  H
  H21      1.0000 0.61590  0.79370  0.23650  Biso   1.000  H
  H22      1.0000 0.88410  0.20630  0.73650  Biso   1.000  H
  H23      1.0000 0.38410  0.29370  0.26350  Biso   1.000  H
  H24      1.0000 0.11590  0.70630  0.76350  Biso   1.000  H
  C17      1.0000 0.41610  0.26998  0.59114  Biso   1.000  C
  C18      1.0000 0.08390  0.73002  0.09114  Biso   1.000  C
  C19      1.0000 0.58390  0.76998  0.90886  Biso   1.000  C
  C20      1.0000 0.91610  0.23002  0.40886  Biso   1.000  C
  C21      1.0000 0.58390  0.73002  0.40886  Biso   1.000  C
  C22      1.0000 0.91610  0.26998  0.90886  Biso   1.000  C
  C23      1.0000 0.41610  0.23002  0.09114  Biso   1.000  C
  C24      1.0000 0.08390  0.76998  0.59114  Biso   1.000  C
  C25      1.0000 0.43430  0.22150  0.40656  Biso   1.000  C
  C26      1.0000 0.06570  0.77850  0.90656  Biso   1.000  C
  C27      1.0000 0.56570  0.72150  0.09344  Biso   1.000  C
  C28      1.0000 0.93430  0.27850  0.59344  Biso   1.000  C
  C29      1.0000 0.56570  0.77850  0.59344  Biso   1.000  C
  C30      1.0000 0.93430  0.22150  0.09344  Biso   1.000  C
  C31      1.0000 0.43430  0.27850  0.90656  Biso   1.000  C
  C32      1.0000 0.06570  0.72150  0.40656  Biso   1.000  C
  H25      1.0000 0.44910  0.20080  0.37430  Biso   1.000  H
  H26      1.0000 0.05090  0.79920  0.87430  Biso   1.000  H
  H27      1.0000 0.55090  0.70080  0.12570  Biso   1.000  H
  H28      1.0000 0.94910  0.29920  0.62570  Biso   1.000  H
  H29      1.0000 0.55090  0.79920  0.62570  Biso   1.000  H
  H30      1.0000 0.94910  0.20080  0.12570  Biso   1.000  H
  H31      1.0000 0.44910  0.29920  0.87430  Biso   1.000  H
  H32      1.0000 0.05090  0.70080  0.37430  Biso   1.000  H
  C33      1.0000 0.47030  0.31161  0.41750  Biso   1.000  C
  C34      1.0000 0.02970  0.68839  0.91750  Biso   1.000  C
  C35      1.0000 0.52970  0.81161  0.08250  Biso   1.000  C
  C36      1.0000 0.97030  0.18839  0.58250  Biso   1.000  C
  C37      1.0000 0.52970  0.68839  0.58250  Biso   1.000  C
  C38      1.0000 0.97030  0.31161  0.08250  Biso   1.000  C
  C39      1.0000 0.47030  0.18839  0.91750  Biso   1.000  C
  C40      1.0000 0.02970  0.81161  0.41750  Biso   1.000  C
  C41      1.0000 0.39340  0.28114  0.50022  Biso   1.000  C
  C42      1.0000 0.10660  0.71886  0.00022  Biso   1.000  C
  C43      1.0000 0.60660  0.78114  0.99978  Biso   1.000  C
  C44      1.0000 0.89340  0.21886  0.49978  Biso   1.000  C
  C45      1.0000 0.60660  0.71886  0.49978  Biso   1.000  C
  C46      1.0000 0.89340  0.28114  0.99978  Biso   1.000  C
  C47      1.0000 0.39340  0.21886  0.00022  Biso   1.000  C
  C48      1.0000 0.10660  0.78114  0.50022  Biso   1.000  C
  C49      1.0000 0.35550  0.19201  0.48929  Biso   1.000  C
  C50      1.0000 0.14450  0.80799  0.98929  Biso   1.000  C
  C51      1.0000 0.64450  0.69201  0.01071  Biso   1.000  C
  C52      1.0000 0.85550  0.30799  0.51071  Biso   1.000  C
  C53      1.0000 0.64450  0.80799  0.51071  Biso   1.000  C
  C54      1.0000 0.85550  0.19201  0.01071  Biso   1.000  C
  C55      1.0000 0.35550  0.30799  0.98929  Biso   1.000  C
  C56      1.0000 0.14450  0.69201  0.48929  Biso   1.000  C
  H33      1.0000 0.31520  0.15230  0.51380  Biso   1.000  H
  H34      1.0000 0.18480  0.84770  0.01380  Biso   1.000  H
  H35      1.0000 0.68480  0.65230  0.98620  Biso   1.000  H
  H36      1.0000 0.81520  0.34770  0.48620  Biso   1.000  H
  H37      1.0000 0.68480  0.84770  0.48620  Biso   1.000  H
  H38      1.0000 0.81520  0.15230  0.98620  Biso   1.000  H
  H39      1.0000 0.31520  0.34770  0.01380  Biso   1.000  H
  H40      1.0000 0.18480  0.65230  0.51380  Biso   1.000  H
  C57      1.0000 0.44930  0.34184  0.46516  Biso   1.000  C
  C58      1.0000 0.05070  0.65816  0.96516  Biso   1.000  C
  C59      1.0000 0.55070  0.84184  0.03484  Biso   1.000  C
  C60      1.0000 0.94930  0.15816  0.53484  Biso   1.000  C
  C61      1.0000 0.55070  0.65816  0.53484  Biso   1.000  C
  C62      1.0000 0.94930  0.34184  0.03484  Biso   1.000  C
  C63      1.0000 0.44930  0.15816  0.96516  Biso   1.000  C
  C64      1.0000 0.05070  0.84184  0.46516  Biso   1.000  C
  H41      1.0000 0.47270  0.40270  0.47340  Biso   1.000  H
  H42      1.0000 0.02730  0.59730  0.97340  Biso   1.000  H
  H43      1.0000 0.52730  0.90270  0.02660  Biso   1.000  H
  H44      1.0000 0.97270  0.09730  0.52660  Biso   1.000  H
  H45      1.0000 0.52730  0.59730  0.52660  Biso   1.000  H
  H46      1.0000 0.97270  0.40270  0.02660  Biso   1.000  H
  H47      1.0000 0.47270  0.09730  0.97340  Biso   1.000  H
  H48      1.0000 0.02730  0.90270  0.47340  Biso   1.000  H
  C65      1.0000 0.37740  0.16144  0.44185  Biso   1.000  C
  C66      1.0000 0.12260  0.83856  0.94185  Biso   1.000  C
  C67      1.0000 0.62260  0.66144  0.05815  Biso   1.000  C
  C68      1.0000 0.87740  0.33856  0.55815  Biso   1.000  C
  C69      1.0000 0.62260  0.83856  0.55815  Biso   1.000  C
  C70      1.0000 0.87740  0.16144  0.05815  Biso   1.000  C
  C71      1.0000 0.37740  0.33856  0.94185  Biso   1.000  C
  C72      1.0000 0.12260  0.66144  0.44185  Biso   1.000  C
  C73      1.0000 0.58480  0.16060  0.65711  Biso   1.000  C
  C74      1.0000 0.91520  0.83940  0.15711  Biso   1.000  C
  C75      1.0000 0.41520  0.66060  0.84289  Biso   1.000  C
  C76      1.0000 0.08480  0.33940  0.34289  Biso   1.000  C
  C77      1.0000 0.41520  0.83940  0.34289  Biso   1.000  C
  C78      1.0000 0.08480  0.16060  0.84289  Biso   1.000  C
  C79      1.0000 0.58480  0.33940  0.15711  Biso   1.000  C
  C80      1.0000 0.91520  0.66060  0.65711  Biso   1.000  C
  H49      1.0000 0.64480  0.10260  0.66250  Biso   1.000  H
  H50      1.0000 0.85520  0.89740  0.16250  Biso   1.000  H
  H51      1.0000 0.35520  0.60260  0.83750  Biso   1.000  H
  H52      1.0000 0.14480  0.39740  0.33750  Biso   1.000  H
  H53      1.0000 0.35520  0.89740  0.33750  Biso   1.000  H
  H54      1.0000 0.14480  0.10260  0.83750  Biso   1.000  H
  H55      1.0000 0.64480  0.39740  0.16250  Biso   1.000  H
  H56      1.0000 0.85520  0.60260  0.66250  Biso   1.000  H
  H57      1.0000 0.67100  0.20920  0.66130  Biso   1.000  H
  H58      1.0000 0.82900  0.79080  0.16130  Biso   1.000  H
  H59      1.0000 0.32900  0.70920  0.83870  Biso   1.000  H
  H60      1.0000 0.17100  0.29080  0.33870  Biso   1.000  H
  H61      1.0000 0.32900  0.79080  0.33870  Biso   1.000  H
  H62      1.0000 0.17100  0.20920  0.83870  Biso   1.000  H
  H63      1.0000 0.67100  0.29080  0.16130  Biso   1.000  H
  H64      1.0000 0.82900  0.70920  0.66130  Biso   1.000  H
  C81      1.0000 0.52820  0.37620  0.37904  Biso   1.000  C
  C82      1.0000 0.97180  0.62380  0.87904  Biso   1.000  C
  C83      1.0000 0.47180  0.87620  0.12096  Biso   1.000  C
  C84      1.0000 0.02820  0.12380  0.62096  Biso   1.000  C
  C85      1.0000 0.47180  0.62380  0.62096  Biso   1.000  C
  C86      1.0000 0.02820  0.37620  0.12096  Biso   1.000  C
  C87      1.0000 0.52820  0.12380  0.87904  Biso   1.000  C
  C88      1.0000 0.97180  0.87620  0.37904  Biso   1.000  C
  H65      1.0000 0.43780  0.42120  0.37360  Biso   1.000  H
  H66      1.0000 0.06220  0.57880  0.87360  Biso   1.000  H
  H67      1.0000 0.56220  0.92120  0.12640  Biso   1.000  H
  H68      1.0000 0.93780  0.07880  0.62640  Biso   1.000  H
  H69      1.0000 0.56220  0.57880  0.62640  Biso   1.000  H
  H70      1.0000 0.93780  0.42120  0.12640  Biso   1.000  H
  H71      1.0000 0.43780  0.07880  0.87360  Biso   1.000  H
  H72      1.0000 0.06220  0.92120  0.37360  Biso   1.000  H
  H73      1.0000 0.55010  0.34330  0.34890  Biso   1.000  H
  H74      1.0000 0.94990  0.65670  0.84890  Biso   1.000  H
  H75      1.0000 0.44990  0.84330  0.15110  Biso   1.000  H
  H76      1.0000 0.05010  0.15670  0.65110  Biso   1.000  H
  H77      1.0000 0.44990  0.65670  0.65110  Biso   1.000  H
  H78      1.0000 0.05010  0.34330  0.15110  Biso   1.000  H
  H79      1.0000 0.55010  0.15670  0.84890  Biso   1.000  H
  H80      1.0000 0.94990  0.84330  0.34890  Biso   1.000  H
  H81      1.0000 0.63460  0.40630  0.38950  Biso   1.000  H
  H82      1.0000 0.86540  0.59370  0.88950  Biso   1.000  H
  H83      1.0000 0.36540  0.90630  0.11050  Biso   1.000  H
  H84      1.0000 0.13460  0.09370  0.61050  Biso   1.000  H
  H85      1.0000 0.36540  0.59370  0.61050  Biso   1.000  H
  H86      1.0000 0.13460  0.40630  0.11050  Biso   1.000  H
  H87      1.0000 0.63460  0.09370  0.88950  Biso   1.000  H
  H88      1.0000 0.86540  0.90630  0.38950  Biso   1.000  H
  C89      1.0000 0.33660  0.06490  0.42900  Biso   1.000  C
  C90      1.0000 0.16340  0.93510  0.92900  Biso   1.000  C
  C91      1.0000 0.66340  0.56490  0.07100  Biso   1.000  C
  C92      1.0000 0.83660  0.43510  0.57100  Biso   1.000  C
  C93      1.0000 0.66340  0.93510  0.57100  Biso   1.000  C
  C94      1.0000 0.83660  0.06490  0.07100  Biso   1.000  C
  C95      1.0000 0.33660  0.43510  0.92900  Biso   1.000  C
  C96      1.0000 0.16340  0.56490  0.42900  Biso   1.000  C
  H89      1.0000 0.42150  0.04280  0.40550  Biso   1.000  H
  H90      1.0000 0.07850  0.95720  0.90550  Biso   1.000  H
  H91      1.0000 0.57850  0.54280  0.09450  Biso   1.000  H
  H92      1.0000 0.92150  0.45720  0.59450  Biso   1.000  H
  H93      1.0000 0.57850  0.95720  0.59450  Biso   1.000  H
  H94      1.0000 0.92150  0.04280  0.09450  Biso   1.000  H
  H95      1.0000 0.42150  0.45720  0.90550  Biso   1.000  H
  H96      1.0000 0.07850  0.54280  0.40550  Biso   1.000  H
  H97      1.0000 0.22050  0.06150  0.41490  Biso   1.000  H
  H98      1.0000 0.27950  0.93850  0.91490  Biso   1.000  H
  H99      1.0000 0.77950  0.56150  0.08510  Biso   1.000  H
  H100     1.0000 0.72050  0.43850  0.58510  Biso   1.000  H
  H101     1.0000 0.77950  0.93850  0.58510  Biso   1.000  H
  H102     1.0000 0.72050  0.06150  0.08510  Biso   1.000  H
  H103     1.0000 0.22050  0.43850  0.91490  Biso   1.000  H
  H104     1.0000 0.27950  0.56150  0.41490  Biso   1.000  H
  H105     1.0000 0.34130  0.02770  0.45830  Biso   1.000  H
  H106     1.0000 0.15870  0.97230  0.95830  Biso   1.000  H
  H107     1.0000 0.65870  0.52770  0.04170  Biso   1.000  H
  H108     1.0000 0.84130  0.47230  0.54170  Biso   1.000  H
  H109     1.0000 0.65870  0.97230  0.54170  Biso   1.000  H
  H110     1.0000 0.84130  0.02770  0.04170  Biso   1.000  H
  H111     1.0000 0.34130  0.47230  0.95830  Biso   1.000  H
  H112     1.0000 0.15870  0.52770  0.45830  Biso   1.000  H
  H113     1.0000 0.23100  0.43200  0.71310  Biso   1.000  H
  H114     1.0000 0.26900  0.56800  0.21310  Biso   1.000  H
  H115     1.0000 0.76900  0.93200  0.78690  Biso   1.000  H
  H116     1.0000 0.73100  0.06800  0.28690  Biso   1.000  H
  H117     1.0000 0.76900  0.56800  0.28690  Biso   1.000  H
  H118     1.0000 0.73100  0.43200  0.78690  Biso   1.000  H
  H119     1.0000 0.23100  0.06800  0.21310  Biso   1.000  H
  H120     1.0000 0.26900  0.93200  0.71310  Biso   1.000  H
  H121     1.0000 0.40800  0.46200  0.71780  Biso   1.000  H
  H122     1.0000 0.09200  0.53800  0.21780  Biso   1.000  H
  H123     1.0000 0.59200  0.96200  0.78220  Biso   1.000  H
  H124     1.0000 0.90800  0.03800  0.28220  Biso   1.000  H
  H125     1.0000 0.59200  0.53800  0.28220  Biso   1.000  H
  H126     1.0000 0.90800  0.46200  0.78220  Biso   1.000  H
  H127     1.0000 0.40800  0.03800  0.21780  Biso   1.000  H
  H128     1.0000 0.09200  0.96200  0.71780  Biso   1.000  H
