data_image0
_cell_length_a       8.8881
_cell_length_b       12.5549
_cell_length_c       15.7188
_cell_angle_alpha    90
_cell_angle_beta     116.719
_cell_angle_gamma    90

_symmetry_space_group_name_H-M    "P 1"
_symmetry_int_tables_number       1

loop_
  _symmetry_equiv_pos_as_xyz
  'x, y, z'

loop_
  _atom_site_label
  _atom_site_occupancy
  _atom_site_fract_x
  _atom_site_fract_y
  _atom_site_fract_z
  _atom_site_thermal_displace_type
  _atom_site_B_iso_or_equiv
  _atom_site_type_symbol
  Cu1      1.0000 0.99724  0.26077  0.24111  Biso   1.000  Cu
  Cu2      1.0000 0.00276  0.76077  0.25889  Biso   1.000  Cu
  Cu3      1.0000 0.00276  0.73923  0.75889  Biso   1.000  Cu
  Cu4      1.0000 0.99724  0.23923  0.74111  Biso   1.000  Cu
  Cu5      1.0000 0.19455  0.04927  0.53658  Biso   1.000  Cu
  Cu6      1.0000 0.80545  0.54927  0.96342  Biso   1.000  Cu
  Cu7      1.0000 0.80545  0.95073  0.46342  Biso   1.000  Cu
  Cu8      1.0000 0.19455  0.45073  0.03658  Biso   1.000  Cu
  N1       1.0000 0.08890  0.17660  0.35566  Biso   1.000  N
  N2       1.0000 0.91110  0.67660  0.14434  Biso   1.000  N
  N3       1.0000 0.91110  0.82340  0.64434  Biso   1.000  N
  N4       1.0000 0.08890  0.32340  0.85566  Biso   1.000  N
  C1       1.0000 0.13290  0.12530  0.42260  Biso   1.000  C
  C2       1.0000 0.86710  0.62530  0.07740  Biso   1.000  C
  C3       1.0000 0.86710  0.87470  0.57740  Biso   1.000  C
  C4       1.0000 0.13290  0.37470  0.92260  Biso   1.000  C
  C5       1.0000 0.08700  0.34840  0.17900  Biso   1.000  C
  C6       1.0000 0.91300  0.84840  0.32100  Biso   1.000  C
  C7       1.0000 0.91300  0.65160  0.82100  Biso   1.000  C
  C8       1.0000 0.08700  0.15160  0.67900  Biso   1.000  C
  N5       1.0000 0.13960  0.39400  0.13546  Biso   1.000  N
  N6       1.0000 0.86040  0.89400  0.36454  Biso   1.000  N
  N7       1.0000 0.86040  0.60600  0.86454  Biso   1.000  N
  N8       1.0000 0.13960  0.10600  0.63546  Biso   1.000  N
  N9       1.0000 0.74830  0.22383  0.18022  Biso   1.000  N
  N10      1.0000 0.25170  0.72383  0.31978  Biso   1.000  N
  N11      1.0000 0.25170  0.77617  0.81978  Biso   1.000  N
  N12      1.0000 0.74830  0.27617  0.68022  Biso   1.000  N
  N13      1.0000 0.32150  0.58699  0.07926  Biso   1.000  N
  N14      1.0000 0.67850  0.08699  0.42074  Biso   1.000  N
  N15      1.0000 0.67850  0.41301  0.92074  Biso   1.000  N
  N16      1.0000 0.32150  0.91301  0.57926  Biso   1.000  N
  N17      1.0000 0.51470  0.13166  0.13296  Biso   1.000  N
  N18      1.0000 0.48530  0.63166  0.36704  Biso   1.000  N
  N19      1.0000 0.48530  0.86834  0.86704  Biso   1.000  N
  N20      1.0000 0.51470  0.36834  0.63296  Biso   1.000  N
  N21      1.0000 0.36610  0.75686  0.11453  Biso   1.000  N
  N22      1.0000 0.63390  0.25686  0.38547  Biso   1.000  N
  N23      1.0000 0.63390  0.24314  0.88547  Biso   1.000  N
  N24      1.0000 0.36610  0.74314  0.61453  Biso   1.000  N
  C9       1.0000 0.68070  0.13620  0.19292  Biso   1.000  C
  C10      1.0000 0.31930  0.63620  0.30708  Biso   1.000  C
  C11      1.0000 0.31930  0.86380  0.80708  Biso   1.000  C
  C12      1.0000 0.68070  0.36380  0.69292  Biso   1.000  C
  H1       1.0000 0.73960  0.08400  0.23750  Biso   1.000  H
  H2       1.0000 0.26040  0.58400  0.26250  Biso   1.000  H
  H3       1.0000 0.26040  0.91600  0.76250  Biso   1.000  H
  H4       1.0000 0.73960  0.41600  0.73750  Biso   1.000  H
  C13      1.0000 0.61940  0.27820  0.10890  Biso   1.000  C
  C14      1.0000 0.38060  0.77820  0.39110  Biso   1.000  C
  C15      1.0000 0.38060  0.72180  0.89110  Biso   1.000  C
  C16      1.0000 0.61940  0.22180  0.60890  Biso   1.000  C
  H5       1.0000 0.63020  0.34380  0.08460  Biso   1.000  H
  H6       1.0000 0.36980  0.84380  0.41540  Biso   1.000  H
  H7       1.0000 0.36980  0.65620  0.91540  Biso   1.000  H
  H8       1.0000 0.63020  0.15620  0.58460  Biso   1.000  H
  C17      1.0000 0.47560  0.22290  0.07940  Biso   1.000  C
  C18      1.0000 0.52440  0.72290  0.42060  Biso   1.000  C
  C19      1.0000 0.52440  0.77710  0.92060  Biso   1.000  C
  C20      1.0000 0.47560  0.27710  0.57940  Biso   1.000  C
  H9       1.0000 0.37030  0.24250  0.03200  Biso   1.000  H
  H10      1.0000 0.62970  0.74250  0.46800  Biso   1.000  H
  H11      1.0000 0.62970  0.75750  0.96800  Biso   1.000  H
  H12      1.0000 0.37030  0.25750  0.53200  Biso   1.000  H
  C21      1.0000 0.40030  0.04910  0.12830  Biso   1.000  C
  C22      1.0000 0.59970  0.54910  0.37170  Biso   1.000  C
  C23      1.0000 0.59970  0.95090  0.87170  Biso   1.000  C
  C24      1.0000 0.40030  0.45090  0.62830  Biso   1.000  C
  C25      1.0000 0.44300  0.94410  0.12460  Biso   1.000  C
  C26      1.0000 0.55700  0.44410  0.37540  Biso   1.000  C
  C27      1.0000 0.55700  0.05590  0.87540  Biso   1.000  C
  C28      1.0000 0.44300  0.55590  0.62460  Biso   1.000  C
  H13      1.0000 0.54450  0.92630  0.12450  Biso   1.000  H
  H14      1.0000 0.45550  0.42630  0.37550  Biso   1.000  H
  H15      1.0000 0.45550  0.07370  0.87550  Biso   1.000  H
  H16      1.0000 0.54450  0.57370  0.62450  Biso   1.000  H
  C29      1.0000 0.24790  0.07700  0.12690  Biso   1.000  C
  C30      1.0000 0.75210  0.57700  0.37310  Biso   1.000  C
  C31      1.0000 0.75210  0.92300  0.87310  Biso   1.000  C
  C32      1.0000 0.24790  0.42300  0.62690  Biso   1.000  C
  H17      1.0000 0.22090  0.14840  0.12800  Biso   1.000  H
  H18      1.0000 0.77910  0.64840  0.37200  Biso   1.000  H
  H19      1.0000 0.77910  0.85160  0.87200  Biso   1.000  H
  H20      1.0000 0.22090  0.35160  0.62800  Biso   1.000  H
  C33      1.0000 0.13650  0.99840  0.12390  Biso   1.000  C
  C34      1.0000 0.86350  0.49840  0.37610  Biso   1.000  C
  C35      1.0000 0.86350  0.00160  0.87610  Biso   1.000  C
  C36      1.0000 0.13650  0.50160  0.62390  Biso   1.000  C
  C37      1.0000 0.17890  0.89290  0.12150  Biso   1.000  C
  C38      1.0000 0.82110  0.39290  0.37850  Biso   1.000  C
  C39      1.0000 0.82110  0.10710  0.87850  Biso   1.000  C
  C40      1.0000 0.17890  0.60710  0.62150  Biso   1.000  C
  H21      1.0000 0.10560  0.83940  0.12020  Biso   1.000  H
  H22      1.0000 0.89440  0.33940  0.37980  Biso   1.000  H
  H23      1.0000 0.89440  0.16060  0.87980  Biso   1.000  H
  H24      1.0000 0.10560  0.66060  0.62020  Biso   1.000  H
  C41      1.0000 0.33040  0.86610  0.12094  Biso   1.000  C
  C42      1.0000 0.66960  0.36610  0.37906  Biso   1.000  C
  C43      1.0000 0.66960  0.13390  0.87906  Biso   1.000  C
  C44      1.0000 0.33040  0.63390  0.62094  Biso   1.000  C
  C45      1.0000 0.25000  0.67980  0.07140  Biso   1.000  C
  C46      1.0000 0.75000  0.17980  0.42860  Biso   1.000  C
  C47      1.0000 0.75000  0.32020  0.92860  Biso   1.000  C
  C48      1.0000 0.25000  0.82020  0.57140  Biso   1.000  C
  H25      1.0000 0.13440  0.69140  0.04010  Biso   1.000  H
  H26      1.0000 0.86560  0.19140  0.45990  Biso   1.000  H
  H27      1.0000 0.86560  0.30860  0.95990  Biso   1.000  H
  H28      1.0000 0.13440  0.80860  0.54010  Biso   1.000  H
  C49      1.0000 0.49190  0.60470  0.12890  Biso   1.000  C
  C50      1.0000 0.50810  0.10470  0.37110  Biso   1.000  C
  C51      1.0000 0.50810  0.39530  0.87110  Biso   1.000  C
  C52      1.0000 0.49190  0.89530  0.62890  Biso   1.000  C
  H29      1.0000 0.57440  0.55250  0.14520  Biso   1.000  H
  H30      1.0000 0.42560  0.05250  0.35480  Biso   1.000  H
  H31      1.0000 0.42560  0.44750  0.85480  Biso   1.000  H
  H32      1.0000 0.57440  0.94750  0.64520  Biso   1.000  H
  C53      1.0000 0.52160  0.70850  0.15050  Biso   1.000  C
  C54      1.0000 0.47840  0.20850  0.34950  Biso   1.000  C
  C55      1.0000 0.47840  0.29150  0.84950  Biso   1.000  C
  C56      1.0000 0.52160  0.79150  0.65050  Biso   1.000  C
  H33      1.0000 0.62610  0.74110  0.18320  Biso   1.000  H
  H34      1.0000 0.37390  0.24110  0.31680  Biso   1.000  H
  H35      1.0000 0.37390  0.25890  0.81680  Biso   1.000  H
  H36      1.0000 0.62610  0.75890  0.68320  Biso   1.000  H
  C57      1.0000 0.97400  0.02580  0.12670  Biso   1.000  C
  C58      1.0000 0.02600  0.52580  0.37330  Biso   1.000  C
  C59      1.0000 0.02600  0.97420  0.87330  Biso   1.000  C
  C60      1.0000 0.97400  0.47420  0.62670  Biso   1.000  C
  H37      1.0000 0.98850  0.01920  0.19080  Biso   1.000  H
  H38      1.0000 0.01150  0.51920  0.30920  Biso   1.000  H
  H39      1.0000 0.01150  0.98080  0.80920  Biso   1.000  H
  H40      1.0000 0.98850  0.48080  0.69080  Biso   1.000  H
  H41      1.0000 0.88710  0.97810  0.08600  Biso   1.000  H
  H42      1.0000 0.11290  0.47810  0.41400  Biso   1.000  H
  H43      1.0000 0.11290  0.02190  0.91400  Biso   1.000  H
  H44      1.0000 0.88710  0.52190  0.58600  Biso   1.000  H
  H45      1.0000 0.94280  0.09770  0.10520  Biso   1.000  H
  H46      1.0000 0.05720  0.59770  0.39480  Biso   1.000  H
  H47      1.0000 0.05720  0.90230  0.89480  Biso   1.000  H
  H48      1.0000 0.94280  0.40230  0.60520  Biso   1.000  H
