data_image0
_cell_length_a       12.774
_cell_length_b       19.299
_cell_length_c       11.056
_cell_angle_alpha    90
_cell_angle_beta     98.752
_cell_angle_gamma    90

_symmetry_space_group_name_H-M    "P 1"
_symmetry_int_tables_number       1

loop_
  _symmetry_equiv_pos_as_xyz
  'x, y, z'

loop_
  _atom_site_label
  _atom_site_occupancy
  _atom_site_fract_x
  _atom_site_fract_y
  _atom_site_fract_z
  _atom_site_thermal_displace_type
  _atom_site_B_iso_or_equiv
  _atom_site_type_symbol
  O1       1.0000 0.43360  0.45150  0.89920  Biso   1.000  O
  O2       1.0000 0.56640  0.45150  0.10080  Biso   1.000  O
  O3       1.0000 0.93360  0.95150  0.89920  Biso   1.000  O
  O4       1.0000 0.06640  0.95150  0.10080  Biso   1.000  O
  O5       1.0000 0.56640  0.54850  0.10080  Biso   1.000  O
  O6       1.0000 0.43360  0.54850  0.89920  Biso   1.000  O
  O7       1.0000 0.06640  0.04850  0.10080  Biso   1.000  O
  O8       1.0000 0.93360  0.04850  0.89920  Biso   1.000  O
  O9       1.0000 0.40310  0.33550  0.85640  Biso   1.000  O
  O10      1.0000 0.59690  0.33550  0.14360  Biso   1.000  O
  O11      1.0000 0.90310  0.83550  0.85640  Biso   1.000  O
  O12      1.0000 0.09690  0.83550  0.14360  Biso   1.000  O
  O13      1.0000 0.59690  0.66450  0.14360  Biso   1.000  O
  O14      1.0000 0.40310  0.66450  0.85640  Biso   1.000  O
  O15      1.0000 0.09690  0.16450  0.14360  Biso   1.000  O
  O16      1.0000 0.90310  0.16450  0.85640  Biso   1.000  O
  O17      1.0000 0.41240  0.43110  0.68880  Biso   1.000  O
  O18      1.0000 0.58760  0.43110  0.31120  Biso   1.000  O
  O19      1.0000 0.91240  0.93110  0.68880  Biso   1.000  O
  O20      1.0000 0.08760  0.93110  0.31120  Biso   1.000  O
  O21      1.0000 0.58760  0.56890  0.31120  Biso   1.000  O
  O22      1.0000 0.41240  0.56890  0.68880  Biso   1.000  O
  O23      1.0000 0.08760  0.06890  0.31120  Biso   1.000  O
  O24      1.0000 0.91240  0.06890  0.68880  Biso   1.000  O
  O25      1.0000 0.25700  0.43200  0.81830  Biso   1.000  O
  O26      1.0000 0.74300  0.43200  0.18170  Biso   1.000  O
  O27      1.0000 0.75700  0.93200  0.81830  Biso   1.000  O
  O28      1.0000 0.24300  0.93200  0.18170  Biso   1.000  O
  O29      1.0000 0.74300  0.56800  0.18170  Biso   1.000  O
  O30      1.0000 0.25700  0.56800  0.81830  Biso   1.000  O
  O31      1.0000 0.24300  0.06800  0.18170  Biso   1.000  O
  O32      1.0000 0.75700  0.06800  0.81830  Biso   1.000  O
  O33      1.0000 0.22790  0.50000  0.59440  Biso   1.000  O
  O34      1.0000 0.77210  0.50000  0.40560  Biso   1.000  O
  O35      1.0000 0.72790  0.00000  0.59440  Biso   1.000  O
  O36      1.0000 0.27210  0.00000  0.40560  Biso   1.000  O
  O37      1.0000 0.61050  0.33720  0.91010  Biso   1.000  O
  O38      1.0000 0.38950  0.33720  0.08990  Biso   1.000  O
  O39      1.0000 0.11050  0.83720  0.91010  Biso   1.000  O
  O40      1.0000 0.88950  0.83720  0.08990  Biso   1.000  O
  O41      1.0000 0.38950  0.66280  0.08990  Biso   1.000  O
  O42      1.0000 0.61050  0.66280  0.91010  Biso   1.000  O
  O43      1.0000 0.88950  0.16280  0.08990  Biso   1.000  O
  O44      1.0000 0.11050  0.16280  0.91010  Biso   1.000  O
  O45      1.0000 0.62160  0.43100  0.74300  Biso   1.000  O
  O46      1.0000 0.37840  0.43100  0.25700  Biso   1.000  O
  O47      1.0000 0.12160  0.93100  0.74300  Biso   1.000  O
  O48      1.0000 0.87840  0.93100  0.25700  Biso   1.000  O
  O49      1.0000 0.37840  0.56900  0.25700  Biso   1.000  O
  O50      1.0000 0.62160  0.56900  0.74300  Biso   1.000  O
  O51      1.0000 0.87840  0.06900  0.25700  Biso   1.000  O
  O52      1.0000 0.12160  0.06900  0.74300  Biso   1.000  O
  O53      1.0000 0.81030  0.50000  0.74110  Biso   1.000  O
  O54      1.0000 0.18970  0.50000  0.25890  Biso   1.000  O
  O55      1.0000 0.31030  0.00000  0.74110  Biso   1.000  O
  O56      1.0000 0.68970  0.00000  0.25890  Biso   1.000  O
  O57      1.0000 0.51880  0.30660  0.67190  Biso   1.000  O
  O58      1.0000 0.48120  0.30660  0.32810  Biso   1.000  O
  O59      1.0000 0.01880  0.80660  0.67190  Biso   1.000  O
  O60      1.0000 0.98120  0.80660  0.32810  Biso   1.000  O
  O61      1.0000 0.48120  0.69340  0.32810  Biso   1.000  O
  O62      1.0000 0.51880  0.69340  0.67190  Biso   1.000  O
  O63      1.0000 0.98120  0.19340  0.32810  Biso   1.000  O
  O64      1.0000 0.01880  0.19340  0.67190  Biso   1.000  O
  O65      1.0000 0.42120  0.54700  0.06560  Biso   1.000  O
  O66      1.0000 0.57880  0.54700  0.93440  Biso   1.000  O
  O67      1.0000 0.92120  0.04700  0.06560  Biso   1.000  O
  O68      1.0000 0.07880  0.04700  0.93440  Biso   1.000  O
  O69      1.0000 0.57880  0.45300  0.93440  Biso   1.000  O
  O70      1.0000 0.42120  0.45300  0.06560  Biso   1.000  O
  O71      1.0000 0.07880  0.95300  0.93440  Biso   1.000  O
  O72      1.0000 0.92120  0.95300  0.06560  Biso   1.000  O
  O73      1.0000 0.24350  0.43310  0.05600  Biso   1.000  O
  O74      1.0000 0.75650  0.43310  0.94400  Biso   1.000  O
  O75      1.0000 0.74350  0.93310  0.05600  Biso   1.000  O
  O76      1.0000 0.25650  0.93310  0.94400  Biso   1.000  O
  O77      1.0000 0.75650  0.56690  0.94400  Biso   1.000  O
  O78      1.0000 0.24350  0.56690  0.05600  Biso   1.000  O
  O79      1.0000 0.25650  0.06690  0.94400  Biso   1.000  O
  O80      1.0000 0.74350  0.06690  0.05600  Biso   1.000  O
  O81      1.0000 0.20570  0.31020  0.92630  Biso   1.000  O
  O82      1.0000 0.79430  0.31020  0.07370  Biso   1.000  O
  O83      1.0000 0.70570  0.81020  0.92630  Biso   1.000  O
  O84      1.0000 0.29430  0.81020  0.07370  Biso   1.000  O
  O85      1.0000 0.79430  0.68980  0.07370  Biso   1.000  O
  O86      1.0000 0.20570  0.68980  0.92630  Biso   1.000  O
  O87      1.0000 0.29430  0.18980  0.07370  Biso   1.000  O
  O88      1.0000 0.70570  0.18980  0.92630  Biso   1.000  O
  P1       1.0000 0.50000  0.50000  0.00000  Biso   1.000  P
  P2       1.0000 0.00000  0.00000  0.00000  Biso   1.000  P
  W1       1.0000 0.30107  0.37075  0.94939  Biso   1.000  W
  W2       1.0000 0.69893  0.37075  0.05061  Biso   1.000  W
  W3       1.0000 0.80107  0.87075  0.94939  Biso   1.000  W
  W4       1.0000 0.19893  0.87075  0.05061  Biso   1.000  W
  W5       1.0000 0.69893  0.62925  0.05061  Biso   1.000  W
  W6       1.0000 0.30107  0.62925  0.94939  Biso   1.000  W
  W7       1.0000 0.19893  0.12925  0.05061  Biso   1.000  W
  W8       1.0000 0.80107  0.12925  0.94939  Biso   1.000  W
  W9       1.0000 0.51319  0.36863  0.77579  Biso   1.000  W
  W10      1.0000 0.48681  0.36863  0.22421  Biso   1.000  W
  W11      1.0000 0.01319  0.86863  0.77579  Biso   1.000  W
  W12      1.0000 0.98681  0.86863  0.22421  Biso   1.000  W
  W13      1.0000 0.48681  0.63137  0.22421  Biso   1.000  W
  W14      1.0000 0.51319  0.63137  0.77579  Biso   1.000  W
  W15      1.0000 0.98681  0.13137  0.22421  Biso   1.000  W
  W16      1.0000 0.01319  0.13137  0.77579  Biso   1.000  W
  W17      1.0000 0.31572  0.50000  0.72386  Biso   1.000  W
  W18      1.0000 0.68428  0.50000  0.27614  Biso   1.000  W
  W19      1.0000 0.81572  0.00000  0.72386  Biso   1.000  W
  W20      1.0000 0.18428  0.00000  0.27614  Biso   1.000  W
  W21      1.0000 0.71148  0.50000  0.82287  Biso   1.000  W
  W22      1.0000 0.28852  0.50000  0.17713  Biso   1.000  W
  W23      1.0000 0.21148  0.00000  0.82287  Biso   1.000  W
  W24      1.0000 0.78852  0.00000  0.17713  Biso   1.000  W
  C1       1.0000 0.00000  0.36300  0.25200  Biso   1.000  C
  C2       1.0000 0.00000  0.36300  0.74800  Biso   1.000  C
  C3       1.0000 0.50000  0.86300  0.25200  Biso   1.000  C
  C4       1.0000 0.50000  0.86300  0.74800  Biso   1.000  C
  C5       1.0000 0.00000  0.63700  0.74800  Biso   1.000  C
  C6       1.0000 0.00000  0.63700  0.25200  Biso   1.000  C
  C7       1.0000 0.50000  0.13700  0.74800  Biso   1.000  C
  C8       1.0000 0.50000  0.13700  0.25200  Biso   1.000  C
  H1       1.0000 0.92950  0.37680  0.23510  Biso   1.000  H
  H2       1.0000 0.07050  0.37680  0.76490  Biso   1.000  H
  H3       1.0000 0.42950  0.87680  0.23510  Biso   1.000  H
  H4       1.0000 0.57050  0.87680  0.76490  Biso   1.000  H
  H5       1.0000 0.07050  0.62320  0.76490  Biso   1.000  H
  H6       1.0000 0.92950  0.62320  0.23510  Biso   1.000  H
  H7       1.0000 0.57050  0.12320  0.76490  Biso   1.000  H
  H8       1.0000 0.42950  0.12320  0.23510  Biso   1.000  H
  C9       1.0000 0.14660  0.32120  0.22900  Biso   1.000  C
  C10      1.0000 0.85340  0.32120  0.77100  Biso   1.000  C
  C11      1.0000 0.64660  0.82120  0.22900  Biso   1.000  C
  C12      1.0000 0.35340  0.82120  0.77100  Biso   1.000  C
  C13      1.0000 0.85340  0.67880  0.77100  Biso   1.000  C
  C14      1.0000 0.14660  0.67880  0.22900  Biso   1.000  C
  C15      1.0000 0.35340  0.17880  0.77100  Biso   1.000  C
  C16      1.0000 0.64660  0.17880  0.22900  Biso   1.000  C
  H9       1.0000 0.20250  0.30070  0.19740  Biso   1.000  H
  H10      1.0000 0.79750  0.30070  0.80260  Biso   1.000  H
  H11      1.0000 0.70250  0.80070  0.19740  Biso   1.000  H
  H12      1.0000 0.29750  0.80070  0.80260  Biso   1.000  H
  H13      1.0000 0.79750  0.69930  0.80260  Biso   1.000  H
  H14      1.0000 0.20250  0.69930  0.19740  Biso   1.000  H
  H15      1.0000 0.29750  0.19930  0.80260  Biso   1.000  H
  H16      1.0000 0.70250  0.19930  0.19740  Biso   1.000  H
  C17      1.0000 0.24070  0.34570  0.44420  Biso   1.000  C
  C18      1.0000 0.75930  0.34570  0.55580  Biso   1.000  C
  C19      1.0000 0.74070  0.84570  0.44420  Biso   1.000  C
  C20      1.0000 0.25930  0.84570  0.55580  Biso   1.000  C
  C21      1.0000 0.75930  0.65430  0.55580  Biso   1.000  C
  C22      1.0000 0.24070  0.65430  0.44420  Biso   1.000  C
  C23      1.0000 0.25930  0.15430  0.55580  Biso   1.000  C
  C24      1.0000 0.74070  0.15430  0.44420  Biso   1.000  C
  H17      1.0000 0.23850  0.38820  0.49060  Biso   1.000  H
  H18      1.0000 0.76150  0.38820  0.50940  Biso   1.000  H
  H19      1.0000 0.73850  0.88820  0.49060  Biso   1.000  H
  H20      1.0000 0.26150  0.88820  0.50940  Biso   1.000  H
  H21      1.0000 0.76150  0.61180  0.50940  Biso   1.000  H
  H22      1.0000 0.23850  0.61180  0.49060  Biso   1.000  H
  H23      1.0000 0.26150  0.11180  0.50940  Biso   1.000  H
  H24      1.0000 0.73850  0.11180  0.49060  Biso   1.000  H
  H25      1.0000 0.30660  0.34500  0.41070  Biso   1.000  H
  H26      1.0000 0.69340  0.34500  0.58930  Biso   1.000  H
  H27      1.0000 0.80660  0.84500  0.41070  Biso   1.000  H
  H28      1.0000 0.19340  0.84500  0.58930  Biso   1.000  H
  H29      1.0000 0.69340  0.65500  0.58930  Biso   1.000  H
  H30      1.0000 0.30660  0.65500  0.41070  Biso   1.000  H
  H31      1.0000 0.19340  0.15500  0.58930  Biso   1.000  H
  H32      1.0000 0.80660  0.15500  0.41070  Biso   1.000  H
  C25      1.0000 0.23630  0.28340  0.52860  Biso   1.000  C
  C26      1.0000 0.76370  0.28340  0.47140  Biso   1.000  C
  C27      1.0000 0.73630  0.78340  0.52860  Biso   1.000  C
  C28      1.0000 0.26370  0.78340  0.47140  Biso   1.000  C
  C29      1.0000 0.76370  0.71660  0.47140  Biso   1.000  C
  C30      1.0000 0.23630  0.71660  0.52860  Biso   1.000  C
  C31      1.0000 0.26370  0.21660  0.47140  Biso   1.000  C
  C32      1.0000 0.73630  0.21660  0.52860  Biso   1.000  C
  H33      1.0000 0.28510  0.29080  0.60360  Biso   1.000  H
  H34      1.0000 0.71490  0.29080  0.39640  Biso   1.000  H
  H35      1.0000 0.78510  0.79080  0.60360  Biso   1.000  H
  H36      1.0000 0.21490  0.79080  0.39640  Biso   1.000  H
  H37      1.0000 0.71490  0.70920  0.39640  Biso   1.000  H
  H38      1.0000 0.28510  0.70920  0.60360  Biso   1.000  H
  H39      1.0000 0.21490  0.20920  0.39640  Biso   1.000  H
  H40      1.0000 0.78510  0.20920  0.60360  Biso   1.000  H
  H41      1.0000 0.16550  0.27970  0.54980  Biso   1.000  H
  H42      1.0000 0.83450  0.27970  0.45020  Biso   1.000  H
  H43      1.0000 0.66550  0.77970  0.54980  Biso   1.000  H
  H44      1.0000 0.33450  0.77970  0.45020  Biso   1.000  H
  H45      1.0000 0.83450  0.72030  0.45020  Biso   1.000  H
  H46      1.0000 0.16550  0.72030  0.54980  Biso   1.000  H
  H47      1.0000 0.33450  0.22030  0.45020  Biso   1.000  H
  H48      1.0000 0.66550  0.22030  0.54980  Biso   1.000  H
  N1       1.0000 0.05100  0.33240  0.16760  Biso   1.000  N
  N2       1.0000 0.94900  0.33240  0.83240  Biso   1.000  N
  N3       1.0000 0.55100  0.83240  0.16760  Biso   1.000  N
  N4       1.0000 0.44900  0.83240  0.83240  Biso   1.000  N
  N5       1.0000 0.94900  0.66760  0.83240  Biso   1.000  N
  N6       1.0000 0.05100  0.66760  0.16760  Biso   1.000  N
  N7       1.0000 0.44900  0.16760  0.83240  Biso   1.000  N
  N8       1.0000 0.55100  0.16760  0.16760  Biso   1.000  N
  N9       1.0000 0.05690  0.37150  0.35790  Biso   1.000  N
  N10      1.0000 0.94310  0.37150  0.64210  Biso   1.000  N
  N11      1.0000 0.55690  0.87150  0.35790  Biso   1.000  N
  N12      1.0000 0.44310  0.87150  0.64210  Biso   1.000  N
  N13      1.0000 0.94310  0.62850  0.64210  Biso   1.000  N
  N14      1.0000 0.05690  0.62850  0.35790  Biso   1.000  N
  N15      1.0000 0.44310  0.12850  0.64210  Biso   1.000  N
  N16      1.0000 0.55690  0.12850  0.35790  Biso   1.000  N
  N17      1.0000 0.15040  0.34390  0.34350  Biso   1.000  N
  N18      1.0000 0.84960  0.34390  0.65650  Biso   1.000  N
  N19      1.0000 0.65040  0.84390  0.34350  Biso   1.000  N
  N20      1.0000 0.34960  0.84390  0.65650  Biso   1.000  N
  N21      1.0000 0.84960  0.65610  0.65650  Biso   1.000  N
  N22      1.0000 0.15040  0.65610  0.34350  Biso   1.000  N
  N23      1.0000 0.34960  0.15610  0.65650  Biso   1.000  N
  N24      1.0000 0.65040  0.15610  0.34350  Biso   1.000  N
  Cu1      1.0000 0.00000  0.32289  0.00000  Biso   1.000  Cu
  Cu2      1.0000 0.50000  0.82289  0.00000  Biso   1.000  Cu
  Cu3      1.0000 0.00000  0.67711  0.00000  Biso   1.000  Cu
  Cu4      1.0000 0.50000  0.17711  0.00000  Biso   1.000  Cu
  Cu5      1.0000 0.00000  0.41010  0.50000  Biso   1.000  Cu
  Cu6      1.0000 0.50000  0.91010  0.50000  Biso   1.000  Cu
  Cu7      1.0000 0.00000  0.58990  0.50000  Biso   1.000  Cu
  Cu8      1.0000 0.50000  0.08990  0.50000  Biso   1.000  Cu
  O89      1.0000 0.00000  0.50000  0.50000  Biso   1.000  O
  O90      1.0000 0.50000  0.00000  0.50000  Biso   1.000  O
