data_image0
_cell_length_a       9.843
_cell_length_b       12.946
_cell_length_c       10.079
_cell_angle_alpha    90
_cell_angle_beta     99.91
_cell_angle_gamma    90

_symmetry_space_group_name_H-M    "P 1"
_symmetry_int_tables_number       1

loop_
  _symmetry_equiv_pos_as_xyz
  'x, y, z'

loop_
  _atom_site_label
  _atom_site_occupancy
  _atom_site_fract_x
  _atom_site_fract_y
  _atom_site_fract_z
  _atom_site_thermal_displace_type
  _atom_site_B_iso_or_equiv
  _atom_site_type_symbol
  I1       1.0000 0.11293  0.25000  0.37638  Biso   1.000  I
  I2       1.0000 0.88707  0.75000  0.62362  Biso   1.000  I
  I3       1.0000 0.76049  0.25000  0.04044  Biso   1.000  I
  I4       1.0000 0.23951  0.75000  0.95956  Biso   1.000  I
  Cu1      1.0000 0.85000  0.25000  0.30190  Biso   1.000  Cu
  Cu2      1.0000 0.15000  0.75000  0.69810  Biso   1.000  Cu
  Cu3      1.0000 0.02970  0.25000  0.12010  Biso   1.000  Cu
  Cu4      1.0000 0.97030  0.75000  0.87990  Biso   1.000  Cu
  S1       1.0000 0.72130  0.12060  0.39170  Biso   1.000  S
  S2       1.0000 0.27870  0.62060  0.60830  Biso   1.000  S
  S3       1.0000 0.27870  0.87940  0.60830  Biso   1.000  S
  S4       1.0000 0.72130  0.37940  0.39170  Biso   1.000  S
  S5       1.0000 0.50210  0.13610  0.56300  Biso   1.000  S
  S6       1.0000 0.49790  0.63610  0.43700  Biso   1.000  S
  S7       1.0000 0.49790  0.86390  0.43700  Biso   1.000  S
  S8       1.0000 0.50210  0.36390  0.56300  Biso   1.000  S
  S9       1.0000 0.28850  0.13600  0.77500  Biso   1.000  S
  S10      1.0000 0.71150  0.63600  0.22500  Biso   1.000  S
  S11      1.0000 0.71150  0.86400  0.22500  Biso   1.000  S
  S12      1.0000 0.28850  0.36400  0.77500  Biso   1.000  S
  S13      1.0000 0.11990  0.12020  0.99450  Biso   1.000  S
  S14      1.0000 0.88010  0.62020  0.00550  Biso   1.000  S
  S15      1.0000 0.88010  0.87980  0.00550  Biso   1.000  S
  S16      1.0000 0.11990  0.37980  0.99450  Biso   1.000  S
  C1       1.0000 0.89780  0.39910  0.64150  Biso   1.000  C
  C2       1.0000 0.10220  0.89910  0.35850  Biso   1.000  C
  C3       1.0000 0.10220  0.60090  0.35850  Biso   1.000  C
  C4       1.0000 0.89780  0.10090  0.64150  Biso   1.000  C
  C5       1.0000 0.81500  0.45790  0.52860  Biso   1.000  C
  C6       1.0000 0.18500  0.95790  0.47140  Biso   1.000  C
  C7       1.0000 0.18500  0.54210  0.47140  Biso   1.000  C
  C8       1.0000 0.81500  0.04210  0.52860  Biso   1.000  C
  C9       1.0000 0.62090  0.19850  0.47970  Biso   1.000  C
  C10      1.0000 0.37910  0.69850  0.52030  Biso   1.000  C
  C11      1.0000 0.37910  0.80150  0.52030  Biso   1.000  C
  C12      1.0000 0.62090  0.30150  0.47970  Biso   1.000  C
  C13      1.0000 0.44690  0.25000  0.63150  Biso   1.000  C
  C14      1.0000 0.55310  0.75000  0.36850  Biso   1.000  C
  C15      1.0000 0.35490  0.25000  0.71820  Biso   1.000  C
  C16      1.0000 0.64510  0.75000  0.28180  Biso   1.000  C
  C17      1.0000 0.20630  0.19820  0.89300  Biso   1.000  C
  C18      1.0000 0.79370  0.69820  0.10700  Biso   1.000  C
  C19      1.0000 0.79370  0.80180  0.10700  Biso   1.000  C
  C20      1.0000 0.20630  0.30180  0.89300  Biso   1.000  C
  C21      1.0000 0.25900  0.04140  0.08310  Biso   1.000  C
  C22      1.0000 0.74100  0.54140  0.91690  Biso   1.000  C
  C23      1.0000 0.74100  0.95860  0.91690  Biso   1.000  C
  C24      1.0000 0.25900  0.45860  0.08310  Biso   1.000  C
  C25      1.0000 0.38100  0.09880  0.15330  Biso   1.000  C
  C26      1.0000 0.61900  0.59880  0.84670  Biso   1.000  C
  C27      1.0000 0.61900  0.90120  0.84670  Biso   1.000  C
  C28      1.0000 0.38100  0.40120  0.15330  Biso   1.000  C
  H1       1.0000 0.94290  0.44620  0.70700  Biso   1.000  H
  H2       1.0000 0.05710  0.94620  0.29300  Biso   1.000  H
  H3       1.0000 0.05710  0.55380  0.29300  Biso   1.000  H
  H4       1.0000 0.94290  0.05380  0.70700  Biso   1.000  H
  H5       1.0000 0.96470  0.35840  0.60800  Biso   1.000  H
  H6       1.0000 0.03530  0.85840  0.39200  Biso   1.000  H
  H7       1.0000 0.03530  0.64160  0.39200  Biso   1.000  H
  H8       1.0000 0.96470  0.14160  0.60800  Biso   1.000  H
  H9       1.0000 0.83860  0.35550  0.68150  Biso   1.000  H
  H10      1.0000 0.16140  0.85550  0.31850  Biso   1.000  H
  H11      1.0000 0.16140  0.64450  0.31850  Biso   1.000  H
  H12      1.0000 0.83860  0.14450  0.68150  Biso   1.000  H
  H13      1.0000 0.74960  0.49840  0.56460  Biso   1.000  H
  H14      1.0000 0.25040  0.99840  0.43540  Biso   1.000  H
  H15      1.0000 0.25040  0.50160  0.43540  Biso   1.000  H
  H16      1.0000 0.74960  0.00160  0.56460  Biso   1.000  H
  H17      1.0000 0.87590  0.50200  0.49150  Biso   1.000  H
  H18      1.0000 0.12410  0.00200  0.50850  Biso   1.000  H
  H19      1.0000 0.12410  0.49800  0.50850  Biso   1.000  H
  H20      1.0000 0.87590  0.99800  0.49150  Biso   1.000  H
  H21      1.0000 0.22320  0.00180  0.14860  Biso   1.000  H
  H22      1.0000 0.77680  0.50180  0.85140  Biso   1.000  H
  H23      1.0000 0.77680  0.99820  0.85140  Biso   1.000  H
  H24      1.0000 0.22320  0.49820  0.14860  Biso   1.000  H
  H25      1.0000 0.28900  0.99660  0.01960  Biso   1.000  H
  H26      1.0000 0.71100  0.49660  0.98040  Biso   1.000  H
  H27      1.0000 0.71100  0.00340  0.98040  Biso   1.000  H
  H28      1.0000 0.28900  0.50340  0.01960  Biso   1.000  H
  H29      1.0000 0.44750  0.05090  0.19660  Biso   1.000  H
  H30      1.0000 0.55250  0.55090  0.80340  Biso   1.000  H
  H31      1.0000 0.55250  0.94910  0.80340  Biso   1.000  H
  H32      1.0000 0.44750  0.44910  0.19660  Biso   1.000  H
  H33      1.0000 0.41980  0.13790  0.08950  Biso   1.000  H
  H34      1.0000 0.58020  0.63790  0.91050  Biso   1.000  H
  H35      1.0000 0.58020  0.86210  0.91050  Biso   1.000  H
  H36      1.0000 0.41980  0.36210  0.08950  Biso   1.000  H
  H37      1.0000 0.35380  0.14350  0.21830  Biso   1.000  H
  H38      1.0000 0.64620  0.64350  0.78170  Biso   1.000  H
  H39      1.0000 0.64620  0.85650  0.78170  Biso   1.000  H
  H40      1.0000 0.35380  0.35650  0.21830  Biso   1.000  H
