data_image0
_cell_length_a       11.0254
_cell_length_b       17.5586
_cell_length_c       9.3588
_cell_angle_alpha    90
_cell_angle_beta     113.335
_cell_angle_gamma    90

_symmetry_space_group_name_H-M    "P 1"
_symmetry_int_tables_number       1

loop_
  _symmetry_equiv_pos_as_xyz
  'x, y, z'

loop_
  _atom_site_label
  _atom_site_occupancy
  _atom_site_fract_x
  _atom_site_fract_y
  _atom_site_fract_z
  _atom_site_thermal_displace_type
  _atom_site_B_iso_or_equiv
  _atom_site_type_symbol
  I1       1.0000 0.20802  0.39119  0.88494  Biso   1.000  I
  I2       1.0000 0.79198  0.39119  0.61506  Biso   1.000  I
  I3       1.0000 0.70802  0.89119  0.88494  Biso   1.000  I
  I4       1.0000 0.29198  0.89119  0.61506  Biso   1.000  I
  I5       1.0000 0.79198  0.60881  0.11506  Biso   1.000  I
  I6       1.0000 0.20802  0.60881  0.38494  Biso   1.000  I
  I7       1.0000 0.29198  0.10881  0.11506  Biso   1.000  I
  I8       1.0000 0.70802  0.10881  0.38494  Biso   1.000  I
  Cu1      1.0000 0.02012  0.34561  0.62453  Biso   1.000  Cu
  Cu2      1.0000 0.97988  0.34561  0.87547  Biso   1.000  Cu
  Cu3      1.0000 0.52012  0.84561  0.62453  Biso   1.000  Cu
  Cu4      1.0000 0.47988  0.84561  0.87547  Biso   1.000  Cu
  Cu5      1.0000 0.97988  0.65439  0.37547  Biso   1.000  Cu
  Cu6      1.0000 0.02012  0.65439  0.12453  Biso   1.000  Cu
  Cu7      1.0000 0.47988  0.15439  0.37547  Biso   1.000  Cu
  Cu8      1.0000 0.52012  0.15439  0.12453  Biso   1.000  Cu
  N1       1.0000 0.06862  0.23744  0.57885  Biso   1.000  N
  N2       1.0000 0.93138  0.23744  0.92115  Biso   1.000  N
  N3       1.0000 0.56862  0.73744  0.57885  Biso   1.000  N
  N4       1.0000 0.43138  0.73744  0.92115  Biso   1.000  N
  N5       1.0000 0.93138  0.76256  0.42115  Biso   1.000  N
  N6       1.0000 0.06862  0.76256  0.07885  Biso   1.000  N
  N7       1.0000 0.43138  0.26256  0.42115  Biso   1.000  N
  N8       1.0000 0.56862  0.26256  0.07885  Biso   1.000  N
  N9       1.0000 0.02124  0.36203  0.40574  Biso   1.000  N
  N10      1.0000 0.97876  0.36203  0.09426  Biso   1.000  N
  N11      1.0000 0.52124  0.86203  0.40574  Biso   1.000  N
  N12      1.0000 0.47876  0.86203  0.09426  Biso   1.000  N
  N13      1.0000 0.97876  0.63797  0.59426  Biso   1.000  N
  N14      1.0000 0.02124  0.63797  0.90574  Biso   1.000  N
  N15      1.0000 0.47876  0.13797  0.59426  Biso   1.000  N
  N16      1.0000 0.52124  0.13797  0.90574  Biso   1.000  N
  C1       1.0000 0.06967  0.22914  0.43630  Biso   1.000  C
  C2       1.0000 0.93033  0.22914  0.06370  Biso   1.000  C
  C3       1.0000 0.56967  0.72914  0.43630  Biso   1.000  C
  C4       1.0000 0.43033  0.72914  0.06370  Biso   1.000  C
  C5       1.0000 0.93033  0.77086  0.56370  Biso   1.000  C
  C6       1.0000 0.06967  0.77086  0.93630  Biso   1.000  C
  C7       1.0000 0.43033  0.27086  0.56370  Biso   1.000  C
  C8       1.0000 0.56967  0.27086  0.93630  Biso   1.000  C
  C9       1.0000 0.12504  0.16590  0.39630  Biso   1.000  C
  C10      1.0000 0.87496  0.16590  0.10370  Biso   1.000  C
  C11      1.0000 0.62504  0.66590  0.39630  Biso   1.000  C
  C12      1.0000 0.37496  0.66590  0.10370  Biso   1.000  C
  C13      1.0000 0.87496  0.83410  0.60370  Biso   1.000  C
  C14      1.0000 0.12504  0.83410  0.89630  Biso   1.000  C
  C15      1.0000 0.37496  0.33410  0.60370  Biso   1.000  C
  C16      1.0000 0.62504  0.33410  0.89630  Biso   1.000  C
  H1       1.0000 0.13080  0.16310  0.29780  Biso   1.000  H
  H2       1.0000 0.86920  0.16310  0.20220  Biso   1.000  H
  H3       1.0000 0.63080  0.66310  0.29780  Biso   1.000  H
  H4       1.0000 0.36920  0.66310  0.20220  Biso   1.000  H
  H5       1.0000 0.86920  0.83690  0.70220  Biso   1.000  H
  H6       1.0000 0.13080  0.83690  0.79780  Biso   1.000  H
  H7       1.0000 0.36920  0.33690  0.70220  Biso   1.000  H
  H8       1.0000 0.63080  0.33690  0.79780  Biso   1.000  H
  C17      1.0000 0.17180  0.10680  0.50240  Biso   1.000  C
  C18      1.0000 0.82820  0.10680  0.99760  Biso   1.000  C
  C19      1.0000 0.67180  0.60680  0.50240  Biso   1.000  C
  C20      1.0000 0.32820  0.60680  0.99760  Biso   1.000  C
  C21      1.0000 0.82820  0.89320  0.49760  Biso   1.000  C
  C22      1.0000 0.17180  0.89320  0.00240  Biso   1.000  C
  C23      1.0000 0.32820  0.39320  0.49760  Biso   1.000  C
  C24      1.0000 0.67180  0.39320  0.00240  Biso   1.000  C
  H9       1.0000 0.20510  0.06160  0.47520  Biso   1.000  H
  H10      1.0000 0.79490  0.06160  0.02480  Biso   1.000  H
  H11      1.0000 0.70510  0.56160  0.47520  Biso   1.000  H
  H12      1.0000 0.29490  0.56160  0.02480  Biso   1.000  H
  H13      1.0000 0.79490  0.93840  0.52480  Biso   1.000  H
  H14      1.0000 0.20510  0.93840  0.97520  Biso   1.000  H
  H15      1.0000 0.29490  0.43840  0.52480  Biso   1.000  H
  H16      1.0000 0.70510  0.43840  0.97520  Biso   1.000  H
  C25      1.0000 0.16930  0.11447  0.64850  Biso   1.000  C
  C26      1.0000 0.83070  0.11447  0.85150  Biso   1.000  C
  C27      1.0000 0.66930  0.61447  0.64850  Biso   1.000  C
  C28      1.0000 0.33070  0.61447  0.85150  Biso   1.000  C
  C29      1.0000 0.83070  0.88553  0.35150  Biso   1.000  C
  C30      1.0000 0.16930  0.88553  0.14850  Biso   1.000  C
  C31      1.0000 0.33070  0.38553  0.35150  Biso   1.000  C
  C32      1.0000 0.66930  0.38553  0.14850  Biso   1.000  C
  H17      1.0000 0.20010  0.07470  0.72310  Biso   1.000  H
  H18      1.0000 0.79990  0.07470  0.77690  Biso   1.000  H
  H19      1.0000 0.70010  0.57470  0.72310  Biso   1.000  H
  H20      1.0000 0.29990  0.57470  0.77690  Biso   1.000  H
  H21      1.0000 0.79990  0.92530  0.27690  Biso   1.000  H
  H22      1.0000 0.20010  0.92530  0.22310  Biso   1.000  H
  H23      1.0000 0.29990  0.42530  0.27690  Biso   1.000  H
  H24      1.0000 0.70010  0.42530  0.22310  Biso   1.000  H
  C33      1.0000 0.12060  0.18172  0.68320  Biso   1.000  C
  C34      1.0000 0.87940  0.18172  0.81680  Biso   1.000  C
  C35      1.0000 0.62060  0.68172  0.68320  Biso   1.000  C
  C36      1.0000 0.37940  0.68172  0.81680  Biso   1.000  C
  C37      1.0000 0.87940  0.81828  0.31680  Biso   1.000  C
  C38      1.0000 0.12060  0.81828  0.18320  Biso   1.000  C
  C39      1.0000 0.37940  0.31828  0.31680  Biso   1.000  C
  C40      1.0000 0.62060  0.31828  0.18320  Biso   1.000  C
  H25      1.0000 0.12430  0.18860  0.78550  Biso   1.000  H
  H26      1.0000 0.87570  0.18860  0.71450  Biso   1.000  H
  H27      1.0000 0.62430  0.68860  0.78550  Biso   1.000  H
  H28      1.0000 0.37570  0.68860  0.71450  Biso   1.000  H
  H29      1.0000 0.87570  0.81140  0.21450  Biso   1.000  H
  H30      1.0000 0.12430  0.81140  0.28550  Biso   1.000  H
  H31      1.0000 0.37570  0.31140  0.21450  Biso   1.000  H
  H32      1.0000 0.62430  0.31140  0.28550  Biso   1.000  H
  C41      1.0000 0.02006  0.29561  0.33176  Biso   1.000  C
  C42      1.0000 0.97994  0.29561  0.16824  Biso   1.000  C
  C43      1.0000 0.52006  0.79561  0.33176  Biso   1.000  C
  C44      1.0000 0.47994  0.79561  0.16824  Biso   1.000  C
  C45      1.0000 0.97994  0.70439  0.66824  Biso   1.000  C
  C46      1.0000 0.02006  0.70439  0.83176  Biso   1.000  C
  C47      1.0000 0.47994  0.20439  0.66824  Biso   1.000  C
  C48      1.0000 0.52006  0.20439  0.83176  Biso   1.000  C
  C49      1.0000 0.00420  0.42676  0.32570  Biso   1.000  C
  C50      1.0000 0.99580  0.42676  0.17430  Biso   1.000  C
  C51      1.0000 0.50420  0.92676  0.32570  Biso   1.000  C
  C52      1.0000 0.49580  0.92676  0.17430  Biso   1.000  C
  C53      1.0000 0.99580  0.57324  0.67430  Biso   1.000  C
  C54      1.0000 0.00420  0.57324  0.82570  Biso   1.000  C
  C55      1.0000 0.49580  0.07324  0.67430  Biso   1.000  C
  C56      1.0000 0.50420  0.07324  0.82570  Biso   1.000  C
  H33      1.0000 0.99770  0.47350  0.37330  Biso   1.000  H
  H34      1.0000 0.00230  0.47350  0.12670  Biso   1.000  H
  H35      1.0000 0.49770  0.97350  0.37330  Biso   1.000  H
  H36      1.0000 0.50230  0.97350  0.12670  Biso   1.000  H
  H37      1.0000 0.00230  0.52650  0.62670  Biso   1.000  H
  H38      1.0000 0.99770  0.52650  0.87330  Biso   1.000  H
  H39      1.0000 0.50230  0.02650  0.62670  Biso   1.000  H
  H40      1.0000 0.49770  0.02650  0.87330  Biso   1.000  H
