data_image0
_cell_length_a       12.57
_cell_length_b       8.1244
_cell_length_c       6.2211
_cell_angle_alpha    90
_cell_angle_beta     102.59
_cell_angle_gamma    90

_symmetry_space_group_name_H-M    "P 1"
_symmetry_int_tables_number       1

loop_
  _symmetry_equiv_pos_as_xyz
  'x, y, z'

loop_
  _atom_site_label
  _atom_site_occupancy
  _atom_site_fract_x
  _atom_site_fract_y
  _atom_site_fract_z
  _atom_site_thermal_displace_type
  _atom_site_B_iso_or_equiv
  _atom_site_type_symbol
  I1       1.0000 0.34502  0.50000  0.12497  Biso   1.000  I
  I2       1.0000 0.65498  0.50000  0.87503  Biso   1.000  I
  I3       1.0000 0.84502  0.00000  0.12497  Biso   1.000  I
  I4       1.0000 0.15498  0.00000  0.87503  Biso   1.000  I
  Cu1      1.0000 0.50000  0.34434  0.00000  Biso   1.000  Cu
  Cu2      1.0000 0.00000  0.84434  0.00000  Biso   1.000  Cu
  Cu3      1.0000 0.50000  0.65566  0.00000  Biso   1.000  Cu
  Cu4      1.0000 0.00000  0.15566  0.00000  Biso   1.000  Cu
  N1       1.0000 0.55798  0.14692  0.20893  Biso   1.000  N
  N2       1.0000 0.44202  0.14692  0.79107  Biso   1.000  N
  N3       1.0000 0.05798  0.64692  0.20893  Biso   1.000  N
  N4       1.0000 0.94202  0.64692  0.79107  Biso   1.000  N
  N5       1.0000 0.44202  0.85308  0.79107  Biso   1.000  N
  N6       1.0000 0.55798  0.85308  0.20893  Biso   1.000  N
  N7       1.0000 0.94202  0.35308  0.79107  Biso   1.000  N
  N8       1.0000 0.05798  0.35308  0.20893  Biso   1.000  N
  C1       1.0000 0.53219  0.00000  0.11510  Biso   1.000  C
  C2       1.0000 0.46781  0.00000  0.88490  Biso   1.000  C
  C3       1.0000 0.03219  0.50000  0.11510  Biso   1.000  C
  C4       1.0000 0.96781  0.50000  0.88490  Biso   1.000  C
  C5       1.0000 0.61635  0.14563  0.41780  Biso   1.000  C
  C6       1.0000 0.38365  0.14563  0.58220  Biso   1.000  C
  C7       1.0000 0.11635  0.64563  0.41780  Biso   1.000  C
  C8       1.0000 0.88365  0.64563  0.58220  Biso   1.000  C
  C9       1.0000 0.38365  0.85437  0.58220  Biso   1.000  C
  C10      1.0000 0.61635  0.85437  0.41780  Biso   1.000  C
  C11      1.0000 0.88365  0.35437  0.58220  Biso   1.000  C
  C12      1.0000 0.11635  0.35437  0.41780  Biso   1.000  C
  H1       1.0000 0.63640  0.24730  0.49100  Biso   1.000  H
  H2       1.0000 0.36360  0.24730  0.50900  Biso   1.000  H
  H3       1.0000 0.13640  0.74730  0.49100  Biso   1.000  H
  H4       1.0000 0.86360  0.74730  0.50900  Biso   1.000  H
  H5       1.0000 0.36360  0.75270  0.50900  Biso   1.000  H
  H6       1.0000 0.63640  0.75270  0.49100  Biso   1.000  H
  H7       1.0000 0.86360  0.25270  0.50900  Biso   1.000  H
  H8       1.0000 0.13640  0.25270  0.49100  Biso   1.000  H
  C13      1.0000 0.64790  0.00000  0.52850  Biso   1.000  C
  C14      1.0000 0.35210  0.00000  0.47150  Biso   1.000  C
  C15      1.0000 0.14790  0.50000  0.52850  Biso   1.000  C
  C16      1.0000 0.85210  0.50000  0.47150  Biso   1.000  C
  H9       1.0000 0.68980  0.00000  0.67540  Biso   1.000  H
  H10      1.0000 0.31020  0.00000  0.32460  Biso   1.000  H
  H11      1.0000 0.18980  0.50000  0.67540  Biso   1.000  H
  H12      1.0000 0.81020  0.50000  0.32460  Biso   1.000  H
