data_image0
_cell_length_a       7.377
_cell_length_b       14.522
_cell_length_c       12.275
_cell_angle_alpha    90
_cell_angle_beta     100.28
_cell_angle_gamma    90

_symmetry_space_group_name_H-M    "P 1"
_symmetry_int_tables_number       1

loop_
  _symmetry_equiv_pos_as_xyz
  'x, y, z'

loop_
  _atom_site_label
  _atom_site_occupancy
  _atom_site_fract_x
  _atom_site_fract_y
  _atom_site_fract_z
  _atom_site_thermal_displace_type
  _atom_site_B_iso_or_equiv
  _atom_site_type_symbol
  P1       1.0000 0.57210  0.09510  0.38640  Biso   1.000  P
  P2       1.0000 0.42790  0.59510  0.11360  Biso   1.000  P
  P3       1.0000 0.42790  0.90490  0.61360  Biso   1.000  P
  P4       1.0000 0.57210  0.40490  0.88640  Biso   1.000  P
  S1       1.0000 0.50320  0.20840  0.47350  Biso   1.000  S
  S2       1.0000 0.49680  0.70840  0.02650  Biso   1.000  S
  S3       1.0000 0.49680  0.79160  0.52650  Biso   1.000  S
  S4       1.0000 0.50320  0.29160  0.97350  Biso   1.000  S
  S5       1.0000 0.60240  0.13910  0.22880  Biso   1.000  S
  S6       1.0000 0.39760  0.63910  0.27120  Biso   1.000  S
  S7       1.0000 0.39760  0.86090  0.77120  Biso   1.000  S
  S8       1.0000 0.60240  0.36090  0.72880  Biso   1.000  S
  S9       1.0000 0.30850  0.03210  0.34440  Biso   1.000  S
  S10      1.0000 0.69150  0.53210  0.15560  Biso   1.000  S
  S11      1.0000 0.69150  0.96790  0.65560  Biso   1.000  S
  S12      1.0000 0.30850  0.46790  0.84440  Biso   1.000  S
  Cu1      1.0000 0.79471  0.01724  0.49105  Biso   1.000  Cu
  Cu2      1.0000 0.20529  0.51724  0.00895  Biso   1.000  Cu
  Cu3      1.0000 0.20529  0.98276  0.50895  Biso   1.000  Cu
  Cu4      1.0000 0.79471  0.48276  0.99105  Biso   1.000  Cu
  Cl1      1.0000 0.05440  0.10440  0.57520  Biso   1.000  Cl
  Cl2      1.0000 0.94560  0.60440  0.92480  Biso   1.000  Cl
  Cl3      1.0000 0.94560  0.89560  0.42480  Biso   1.000  Cl
  Cl4      1.0000 0.05440  0.39560  0.07520  Biso   1.000  Cl
  C1       1.0000 0.31430  0.26550  0.38390  Biso   1.000  C
  C2       1.0000 0.68570  0.76550  0.11610  Biso   1.000  C
  C3       1.0000 0.68570  0.73450  0.61610  Biso   1.000  C
  C4       1.0000 0.31430  0.23450  0.88390  Biso   1.000  C
  C5       1.0000 0.27300  0.35500  0.42930  Biso   1.000  C
  C6       1.0000 0.72700  0.85500  0.07070  Biso   1.000  C
  C7       1.0000 0.72700  0.64500  0.57070  Biso   1.000  C
  C8       1.0000 0.27300  0.14500  0.92930  Biso   1.000  C
  C9       1.0000 0.84920  0.14120  0.24390  Biso   1.000  C
  C10      1.0000 0.15080  0.64120  0.25610  Biso   1.000  C
  C11      1.0000 0.15080  0.85880  0.75610  Biso   1.000  C
  C12      1.0000 0.84920  0.35880  0.74390  Biso   1.000  C
  C13      1.0000 0.91600  0.14500  0.14240  Biso   1.000  C
  C14      1.0000 0.08400  0.64500  0.35760  Biso   1.000  C
  C15      1.0000 0.08400  0.85500  0.85760  Biso   1.000  C
  C16      1.0000 0.91600  0.35500  0.64240  Biso   1.000  C
  C17      1.0000 0.36600  0.92720  0.27210  Biso   1.000  C
  C18      1.0000 0.63400  0.42720  0.22790  Biso   1.000  C
  C19      1.0000 0.63400  0.07280  0.72790  Biso   1.000  C
  C20      1.0000 0.36600  0.57280  0.77210  Biso   1.000  C
  C21      1.0000 0.25700  0.91710  0.16700  Biso   1.000  C
  C22      1.0000 0.74300  0.41710  0.33300  Biso   1.000  C
  C23      1.0000 0.74300  0.08290  0.83300  Biso   1.000  C
  C24      1.0000 0.25700  0.58290  0.66700  Biso   1.000  C
  H1       1.0000 0.29100  0.33200  0.50000  Biso   1.000  H
  H2       1.0000 0.70900  0.83200  0.00000  Biso   1.000  H
  H3       1.0000 0.70900  0.66800  0.50000  Biso   1.000  H
  H4       1.0000 0.29100  0.16800  0.00000  Biso   1.000  H
  H5       1.0000 0.33200  0.27150  0.30470  Biso   1.000  H
  H6       1.0000 0.66800  0.77150  0.19530  Biso   1.000  H
  H7       1.0000 0.66800  0.72850  0.69530  Biso   1.000  H
  H8       1.0000 0.33200  0.22850  0.80470  Biso   1.000  H
  H9       1.0000 0.29100  0.85550  0.13870  Biso   1.000  H
  H10      1.0000 0.70900  0.35550  0.36130  Biso   1.000  H
  H11      1.0000 0.70900  0.14450  0.86130  Biso   1.000  H
  H12      1.0000 0.29100  0.64450  0.63870  Biso   1.000  H
  H13      1.0000 0.37500  0.41600  0.41600  Biso   1.000  H
  H14      1.0000 0.62500  0.91600  0.08400  Biso   1.000  H
  H15      1.0000 0.62500  0.58400  0.58400  Biso   1.000  H
  H16      1.0000 0.37500  0.08400  0.91600  Biso   1.000  H
  H17      1.0000 0.20700  0.22850  0.35940  Biso   1.000  H
  H18      1.0000 0.79300  0.72850  0.14060  Biso   1.000  H
  H19      1.0000 0.79300  0.77150  0.64060  Biso   1.000  H
  H20      1.0000 0.20700  0.27150  0.85940  Biso   1.000  H
  H21      1.0000 0.87500  0.18750  0.08400  Biso   1.000  H
  H22      1.0000 0.12500  0.68750  0.41600  Biso   1.000  H
  H23      1.0000 0.12500  0.81250  0.91600  Biso   1.000  H
  H24      1.0000 0.87500  0.31250  0.58400  Biso   1.000  H
  H25      1.0000 0.37500  0.87500  0.33200  Biso   1.000  H
  H26      1.0000 0.62500  0.37500  0.16800  Biso   1.000  H
  H27      1.0000 0.62500  0.12500  0.66800  Biso   1.000  H
  H28      1.0000 0.37500  0.62500  0.83200  Biso   1.000  H
  H29      1.0000 0.87500  0.10350  0.30660  Biso   1.000  H
  H30      1.0000 0.12500  0.60350  0.19340  Biso   1.000  H
  H31      1.0000 0.12500  0.89650  0.69340  Biso   1.000  H
  H32      1.0000 0.87500  0.39650  0.80660  Biso   1.000  H
  H33      1.0000 0.16000  0.38750  0.40340  Biso   1.000  H
  H34      1.0000 0.84000  0.88750  0.09660  Biso   1.000  H
  H35      1.0000 0.84000  0.61250  0.59660  Biso   1.000  H
  H36      1.0000 0.16000  0.11250  0.90340  Biso   1.000  H
  H37      1.0000 0.93610  0.19080  0.26810  Biso   1.000  H
  H38      1.0000 0.06390  0.69080  0.23190  Biso   1.000  H
  H39      1.0000 0.06390  0.80920  0.73190  Biso   1.000  H
  H40      1.0000 0.93610  0.30920  0.76810  Biso   1.000  H
  H41      1.0000 0.88830  0.08580  0.10770  Biso   1.000  H
  H42      1.0000 0.11170  0.58580  0.39230  Biso   1.000  H
  H43      1.0000 0.11170  0.91420  0.89230  Biso   1.000  H
  H44      1.0000 0.88830  0.41420  0.60770  Biso   1.000  H
  H45      1.0000 0.04580  0.15230  0.15790  Biso   1.000  H
  H46      1.0000 0.95420  0.65230  0.34210  Biso   1.000  H
  H47      1.0000 0.95420  0.84770  0.84210  Biso   1.000  H
  H48      1.0000 0.04580  0.34770  0.65790  Biso   1.000  H
  H49      1.0000 0.48190  0.92540  0.25180  Biso   1.000  H
  H50      1.0000 0.51810  0.42540  0.24820  Biso   1.000  H
  H51      1.0000 0.51810  0.07460  0.74820  Biso   1.000  H
  H52      1.0000 0.48190  0.57460  0.75180  Biso   1.000  H
  H53      1.0000 0.27290  0.96610  0.11820  Biso   1.000  H
  H54      1.0000 0.72710  0.46610  0.38180  Biso   1.000  H
  H55      1.0000 0.72710  0.03390  0.88180  Biso   1.000  H
  H56      1.0000 0.27290  0.53390  0.61820  Biso   1.000  H
  H57      1.0000 0.12340  0.91660  0.17100  Biso   1.000  H
  H58      1.0000 0.87660  0.41660  0.32900  Biso   1.000  H
  H59      1.0000 0.87660  0.08340  0.82900  Biso   1.000  H
  H60      1.0000 0.12340  0.58340  0.67100  Biso   1.000  H
