data_image0
_cell_length_a       12.9
_cell_length_b       8.773
_cell_length_c       14.702
_cell_angle_alpha    90
_cell_angle_beta     101.99
_cell_angle_gamma    90

_symmetry_space_group_name_H-M    "P 1"
_symmetry_int_tables_number       1

loop_
  _symmetry_equiv_pos_as_xyz
  'x, y, z'

loop_
  _atom_site_label
  _atom_site_occupancy
  _atom_site_fract_x
  _atom_site_fract_y
  _atom_site_fract_z
  _atom_site_thermal_displace_type
  _atom_site_B_iso_or_equiv
  _atom_site_type_symbol
  Cu1      1.0000 0.08110  0.20930  0.21270  Biso   1.000  Cu
  Cu2      1.0000 0.41890  0.70930  0.28730  Biso   1.000  Cu
  Cu3      1.0000 0.91890  0.79070  0.78730  Biso   1.000  Cu
  Cu4      1.0000 0.58110  0.29070  0.71270  Biso   1.000  Cu
  C1       1.0000 0.25100  0.95400  0.23250  Biso   1.000  C
  C2       1.0000 0.24900  0.45400  0.26750  Biso   1.000  C
  C3       1.0000 0.74900  0.04600  0.76750  Biso   1.000  C
  C4       1.0000 0.75100  0.54600  0.73250  Biso   1.000  C
  C5       1.0000 0.18800  0.05000  0.08700  Biso   1.000  C
  C6       1.0000 0.31200  0.55000  0.41300  Biso   1.000  C
  C7       1.0000 0.81200  0.95000  0.91300  Biso   1.000  C
  C8       1.0000 0.68800  0.45000  0.58700  Biso   1.000  C
  C9       1.0000 0.27000  0.97300  0.05700  Biso   1.000  C
  C10      1.0000 0.23000  0.47300  0.44300  Biso   1.000  C
  C11      1.0000 0.73000  0.02700  0.94300  Biso   1.000  C
  C12      1.0000 0.77000  0.52700  0.55700  Biso   1.000  C
  C13      1.0000 0.33700  0.88700  0.11900  Biso   1.000  C
  C14      1.0000 0.16300  0.38700  0.38100  Biso   1.000  C
  C15      1.0000 0.66300  0.11300  0.88100  Biso   1.000  C
  C16      1.0000 0.83700  0.61300  0.61900  Biso   1.000  C
  C17      1.0000 0.23600  0.94400  0.33100  Biso   1.000  C
  C18      1.0000 0.26400  0.44400  0.16900  Biso   1.000  C
  C19      1.0000 0.76400  0.05600  0.66900  Biso   1.000  C
  C20      1.0000 0.73600  0.55600  0.83100  Biso   1.000  C
  N1       1.0000 0.32400  0.86800  0.20690  Biso   1.000  N
  N2       1.0000 0.17600  0.36800  0.29310  Biso   1.000  N
  N3       1.0000 0.67600  0.13200  0.79310  Biso   1.000  N
  N4       1.0000 0.82400  0.63200  0.70690  Biso   1.000  N
  N5       1.0000 0.18140  0.04500  0.17570  Biso   1.000  N
  N6       1.0000 0.31860  0.54500  0.32430  Biso   1.000  N
  N7       1.0000 0.81860  0.95500  0.82430  Biso   1.000  N
  N8       1.0000 0.68140  0.45500  0.67570  Biso   1.000  N
  C21      1.0000 0.95900  0.29500  0.01900  Biso   1.000  C
  C22      1.0000 0.54100  0.79500  0.48100  Biso   1.000  C
  C23      1.0000 0.04100  0.70500  0.98100  Biso   1.000  C
  C24      1.0000 0.45900  0.20500  0.51900  Biso   1.000  C
  C25      1.0000 0.10300  0.14000  0.02700  Biso   1.000  C
  C26      1.0000 0.39700  0.64000  0.47300  Biso   1.000  C
  C27      1.0000 0.89700  0.86000  0.97300  Biso   1.000  C
  C28      1.0000 0.60300  0.36000  0.52700  Biso   1.000  C
  C29      1.0000 0.08500  0.13200  0.93200  Biso   1.000  C
  C30      1.0000 0.41500  0.63200  0.56800  Biso   1.000  C
  C31      1.0000 0.91500  0.86800  0.06800  Biso   1.000  C
  C32      1.0000 0.58500  0.36800  0.43200  Biso   1.000  C
  C33      1.0000 0.00200  0.21500  0.88300  Biso   1.000  C
  C34      1.0000 0.49800  0.71500  0.61700  Biso   1.000  C
  C35      1.0000 0.99800  0.78500  0.11700  Biso   1.000  C
  C36      1.0000 0.50200  0.28500  0.38300  Biso   1.000  C
  C37      1.0000 0.88700  0.37900  0.06700  Biso   1.000  C
  C38      1.0000 0.61300  0.87900  0.43300  Biso   1.000  C
  C39      1.0000 0.11300  0.62100  0.93300  Biso   1.000  C
  C40      1.0000 0.38700  0.12100  0.56700  Biso   1.000  C
  N9       1.0000 0.93600  0.29200  0.92440  Biso   1.000  N
  N10      1.0000 0.56400  0.79200  0.57560  Biso   1.000  N
  N11      1.0000 0.06400  0.70800  0.07560  Biso   1.000  N
  N12      1.0000 0.43600  0.20800  0.42440  Biso   1.000  N
  N13      1.0000 0.04200  0.22500  0.07120  Biso   1.000  N
  N14      1.0000 0.45800  0.72500  0.42880  Biso   1.000  N
  N15      1.0000 0.95800  0.77500  0.92880  Biso   1.000  N
  N16      1.0000 0.54200  0.27500  0.57120  Biso   1.000  N
  N17      1.0000 0.97400  0.16600  0.28320  Biso   1.000  N
  N18      1.0000 0.52600  0.66600  0.21680  Biso   1.000  N
  N19      1.0000 0.02600  0.83400  0.71680  Biso   1.000  N
  N20      1.0000 0.47400  0.33400  0.78320  Biso   1.000  N
  C41      1.0000 0.91700  0.15600  0.33000  Biso   1.000  C
  C42      1.0000 0.58300  0.65600  0.17000  Biso   1.000  C
  C43      1.0000 0.08300  0.84400  0.67000  Biso   1.000  C
  C44      1.0000 0.41700  0.34400  0.83000  Biso   1.000  C
  C45      1.0000 0.84300  0.14500  0.39300  Biso   1.000  C
  C46      1.0000 0.65700  0.64500  0.10700  Biso   1.000  C
  C47      1.0000 0.15700  0.85500  0.60700  Biso   1.000  C
  C48      1.0000 0.34300  0.35500  0.89300  Biso   1.000  C
  H1       1.0000 0.26300  0.00200  0.98400  Biso   1.000  H
  H2       1.0000 0.23700  0.50200  0.51600  Biso   1.000  H
  H3       1.0000 0.73700  0.99800  0.01600  Biso   1.000  H
  H4       1.0000 0.76300  0.49800  0.48400  Biso   1.000  H
  H5       1.0000 0.39200  0.84100  0.08000  Biso   1.000  H
  H6       1.0000 0.10800  0.34100  0.42000  Biso   1.000  H
  H7       1.0000 0.60800  0.15900  0.92000  Biso   1.000  H
  H8       1.0000 0.89200  0.65900  0.58000  Biso   1.000  H
  H9       1.0000 0.29500  0.86900  0.37100  Biso   1.000  H
  H10      1.0000 0.20500  0.36900  0.12900  Biso   1.000  H
  H11      1.0000 0.70500  0.13100  0.62900  Biso   1.000  H
  H12      1.0000 0.79500  0.63100  0.87100  Biso   1.000  H
  H13      1.0000 0.15800  0.90000  0.33200  Biso   1.000  H
  H14      1.0000 0.34200  0.40000  0.16800  Biso   1.000  H
  H15      1.0000 0.84200  0.10000  0.66800  Biso   1.000  H
  H16      1.0000 0.65800  0.60000  0.83200  Biso   1.000  H
  H17      1.0000 0.24400  0.05700  0.36200  Biso   1.000  H
  H18      1.0000 0.25600  0.55700  0.13800  Biso   1.000  H
  H19      1.0000 0.75600  0.94300  0.63800  Biso   1.000  H
  H20      1.0000 0.74400  0.44300  0.86200  Biso   1.000  H
  H21      1.0000 0.14600  0.05900  0.91500  Biso   1.000  H
  H22      1.0000 0.35400  0.55900  0.58500  Biso   1.000  H
  H23      1.0000 0.85400  0.94100  0.08500  Biso   1.000  H
  H24      1.0000 0.64600  0.44100  0.41500  Biso   1.000  H
  H25      1.0000 0.00600  0.19700  0.81100  Biso   1.000  H
  H26      1.0000 0.49400  0.69700  0.68900  Biso   1.000  H
  H27      1.0000 0.99400  0.80300  0.18900  Biso   1.000  H
  H28      1.0000 0.50600  0.30300  0.31100  Biso   1.000  H
  H29      1.0000 0.82400  0.43000  0.01600  Biso   1.000  H
  H30      1.0000 0.67600  0.93000  0.48400  Biso   1.000  H
  H31      1.0000 0.17600  0.57000  0.98400  Biso   1.000  H
  H32      1.0000 0.32400  0.07000  0.51600  Biso   1.000  H
  H33      1.0000 0.93100  0.46700  0.11000  Biso   1.000  H
  H34      1.0000 0.56900  0.96700  0.39000  Biso   1.000  H
  H35      1.0000 0.06900  0.53300  0.89000  Biso   1.000  H
  H36      1.0000 0.43100  0.03300  0.61000  Biso   1.000  H
  H37      1.0000 0.85400  0.30000  0.11000  Biso   1.000  H
  H38      1.0000 0.64600  0.80000  0.39000  Biso   1.000  H
  H39      1.0000 0.14600  0.70000  0.89000  Biso   1.000  H
  H40      1.0000 0.35400  0.20000  0.61000  Biso   1.000  H
  H41      1.0000 0.77400  0.08000  0.36000  Biso   1.000  H
  H42      1.0000 0.72600  0.58000  0.14000  Biso   1.000  H
  H43      1.0000 0.22600  0.92000  0.64000  Biso   1.000  H
  H44      1.0000 0.27400  0.42000  0.86000  Biso   1.000  H
  H45      1.0000 0.81800  0.25800  0.40900  Biso   1.000  H
  H46      1.0000 0.68200  0.75800  0.09100  Biso   1.000  H
  H47      1.0000 0.18200  0.74200  0.59100  Biso   1.000  H
  H48      1.0000 0.31800  0.24200  0.90900  Biso   1.000  H
  H49      1.0000 0.88100  0.08900  0.45600  Biso   1.000  H
  H50      1.0000 0.61900  0.58900  0.04400  Biso   1.000  H
  H51      1.0000 0.11900  0.91100  0.54400  Biso   1.000  H
  H52      1.0000 0.38100  0.41100  0.95600  Biso   1.000  H
  P1       1.0000 0.09660  0.32820  0.65140  Biso   1.000  P
  P2       1.0000 0.40340  0.82820  0.84860  Biso   1.000  P
  P3       1.0000 0.90340  0.67180  0.34860  Biso   1.000  P
  P4       1.0000 0.59660  0.17180  0.15140  Biso   1.000  P
  F1       1.0000 0.13500  0.18700  0.71520  Biso   1.000  F
  F2       1.0000 0.36500  0.68700  0.78480  Biso   1.000  F
  F3       1.0000 0.86500  0.81300  0.28480  Biso   1.000  F
  F4       1.0000 0.63500  0.31300  0.21520  Biso   1.000  F
  F5       1.0000 0.10800  0.23600  0.56350  Biso   1.000  F
  F6       1.0000 0.39200  0.73600  0.93650  Biso   1.000  F
  F7       1.0000 0.89200  0.76400  0.43650  Biso   1.000  F
  F8       1.0000 0.60800  0.26400  0.06350  Biso   1.000  F
  F9       1.0000 0.09400  0.41800  0.74310  Biso   1.000  F
  F10      1.0000 0.40600  0.91800  0.75690  Biso   1.000  F
  F11      1.0000 0.90600  0.58200  0.25690  Biso   1.000  F
  F12      1.0000 0.59400  0.08200  0.24310  Biso   1.000  F
  F13      1.0000 0.21660  0.38100  0.65820  Biso   1.000  F
  F14      1.0000 0.28340  0.88100  0.84180  Biso   1.000  F
  F15      1.0000 0.78340  0.61900  0.34180  Biso   1.000  F
  F16      1.0000 0.71660  0.11900  0.15820  Biso   1.000  F
  F17      1.0000 0.06400  0.47000  0.59000  Biso   1.000  F
  F18      1.0000 0.43600  0.97000  0.91000  Biso   1.000  F
  F19      1.0000 0.93600  0.53000  0.41000  Biso   1.000  F
  F20      1.0000 0.56400  0.03000  0.09000  Biso   1.000  F
  F21      1.0000 0.98200  0.28100  0.64580  Biso   1.000  F
  F22      1.0000 0.51800  0.78100  0.85420  Biso   1.000  F
  F23      1.0000 0.01800  0.71900  0.35420  Biso   1.000  F
  F24      1.0000 0.48200  0.21900  0.14580  Biso   1.000  F
