data_image0
_cell_length_a       7.42
_cell_length_b       14.537
_cell_length_c       12.345
_cell_angle_alpha    90
_cell_angle_beta     100.911
_cell_angle_gamma    90

_symmetry_space_group_name_H-M    "P 1"
_symmetry_int_tables_number       1

loop_
  _symmetry_equiv_pos_as_xyz
  'x, y, z'

loop_
  _atom_site_label
  _atom_site_occupancy
  _atom_site_fract_x
  _atom_site_fract_y
  _atom_site_fract_z
  _atom_site_thermal_displace_type
  _atom_site_B_iso_or_equiv
  _atom_site_type_symbol
  Br1      1.0000 0.43936  0.38765  0.41746  Biso   1.000  Br
  Br2      1.0000 0.56064  0.88765  0.08254  Biso   1.000  Br
  Br3      1.0000 0.56064  0.61235  0.58254  Biso   1.000  Br
  Br4      1.0000 0.43936  0.11235  0.91746  Biso   1.000  Br
  Cu1      1.0000 0.29356  0.51719  0.49338  Biso   1.000  Cu
  Cu2      1.0000 0.70644  0.01719  0.00662  Biso   1.000  Cu
  Cu3      1.0000 0.70644  0.48281  0.50662  Biso   1.000  Cu
  Cu4      1.0000 0.29356  0.98281  0.99338  Biso   1.000  Cu
  S1       1.0000 0.80930  0.53182  0.34427  Biso   1.000  S
  S2       1.0000 0.19070  0.03182  0.15573  Biso   1.000  S
  S3       1.0000 0.19070  0.46818  0.65573  Biso   1.000  S
  S4       1.0000 0.80930  0.96818  0.84427  Biso   1.000  S
  S5       1.0000 0.00330  0.70911  0.47283  Biso   1.000  S
  S6       1.0000 0.99670  0.20911  0.02717  Biso   1.000  S
  S7       1.0000 0.99670  0.29089  0.52717  Biso   1.000  S
  S8       1.0000 0.00330  0.79089  0.97283  Biso   1.000  S
  S9       1.0000 0.09810  0.63930  0.22928  Biso   1.000  S
  S10      1.0000 0.90190  0.13930  0.27072  Biso   1.000  S
  S11      1.0000 0.90190  0.36070  0.77072  Biso   1.000  S
  S12      1.0000 0.09810  0.86070  0.72928  Biso   1.000  S
  P1       1.0000 0.07100  0.59572  0.38664  Biso   1.000  P
  P2       1.0000 0.92900  0.09572  0.11336  Biso   1.000  P
  P3       1.0000 0.92900  0.40428  0.61336  Biso   1.000  P
  P4       1.0000 0.07100  0.90428  0.88664  Biso   1.000  P
  C1       1.0000 0.86850  0.42760  0.27430  Biso   1.000  C
  C2       1.0000 0.13150  0.92760  0.22570  Biso   1.000  C
  C3       1.0000 0.13150  0.57240  0.72570  Biso   1.000  C
  C4       1.0000 0.86850  0.07240  0.77430  Biso   1.000  C
  C5       1.0000 0.76930  0.42070  0.16420  Biso   1.000  C
  C6       1.0000 0.23070  0.92070  0.33580  Biso   1.000  C
  C7       1.0000 0.23070  0.57930  0.83580  Biso   1.000  C
  C8       1.0000 0.76930  0.07930  0.66420  Biso   1.000  C
  C9       1.0000 0.81540  0.76570  0.38080  Biso   1.000  C
  C10      1.0000 0.18460  0.26570  0.11920  Biso   1.000  C
  C11      1.0000 0.18460  0.23430  0.61920  Biso   1.000  C
  C12      1.0000 0.81540  0.73430  0.88080  Biso   1.000  C
  C13      1.0000 0.77380  0.85470  0.43190  Biso   1.000  C
  C14      1.0000 0.22620  0.35470  0.06810  Biso   1.000  C
  C15      1.0000 0.22620  0.14530  0.56810  Biso   1.000  C
  C16      1.0000 0.77380  0.64530  0.93190  Biso   1.000  C
  C17      1.0000 0.34540  0.64610  0.24540  Biso   1.000  C
  C18      1.0000 0.65460  0.14610  0.25460  Biso   1.000  C
  C19      1.0000 0.65460  0.35390  0.75460  Biso   1.000  C
  C20      1.0000 0.34540  0.85390  0.74540  Biso   1.000  C
  C21      1.0000 0.40890  0.63700  0.14180  Biso   1.000  C
  C22      1.0000 0.59110  0.13700  0.35820  Biso   1.000  C
  C23      1.0000 0.59110  0.36300  0.85820  Biso   1.000  C
  C24      1.0000 0.40890  0.86300  0.64180  Biso   1.000  C
  H1       1.0000 0.82200  0.36700  0.31700  Biso   1.000  H
  H2       1.0000 0.17800  0.86700  0.18300  Biso   1.000  H
  H3       1.0000 0.17800  0.63300  0.68300  Biso   1.000  H
  H4       1.0000 0.82200  0.13300  0.81700  Biso   1.000  H
  H5       1.0000 0.99800  0.42200  0.29000  Biso   1.000  H
  H6       1.0000 0.00200  0.92200  0.21000  Biso   1.000  H
  H7       1.0000 0.00200  0.57800  0.71000  Biso   1.000  H
  H8       1.0000 0.99800  0.07800  0.79000  Biso   1.000  H
  H9       1.0000 0.80900  0.36300  0.12000  Biso   1.000  H
  H10      1.0000 0.19100  0.86300  0.38000  Biso   1.000  H
  H11      1.0000 0.19100  0.63700  0.88000  Biso   1.000  H
  H12      1.0000 0.80900  0.13700  0.62000  Biso   1.000  H
  H13      1.0000 0.63610  0.40960  0.16800  Biso   1.000  H
  H14      1.0000 0.36390  0.90960  0.33200  Biso   1.000  H
  H15      1.0000 0.36390  0.59040  0.83200  Biso   1.000  H
  H16      1.0000 0.63610  0.09040  0.66800  Biso   1.000  H
  H17      1.0000 0.77200  0.47510  0.12510  Biso   1.000  H
  H18      1.0000 0.22800  0.97510  0.37490  Biso   1.000  H
  H19      1.0000 0.22800  0.52490  0.87490  Biso   1.000  H
  H20      1.0000 0.77200  0.02490  0.62510  Biso   1.000  H
  H21      1.0000 0.84600  0.78400  0.31100  Biso   1.000  H
  H22      1.0000 0.15400  0.28400  0.18900  Biso   1.000  H
  H23      1.0000 0.15400  0.21600  0.68900  Biso   1.000  H
  H24      1.0000 0.84600  0.71600  0.81100  Biso   1.000  H
  H25      1.0000 0.72100  0.73300  0.36900  Biso   1.000  H
  H26      1.0000 0.27900  0.23300  0.13100  Biso   1.000  H
  H27      1.0000 0.27900  0.26700  0.63100  Biso   1.000  H
  H28      1.0000 0.72100  0.76700  0.86900  Biso   1.000  H
  H29      1.0000 0.89600  0.90100  0.43700  Biso   1.000  H
  H30      1.0000 0.10400  0.40100  0.06300  Biso   1.000  H
  H31      1.0000 0.10400  0.09900  0.56300  Biso   1.000  H
  H32      1.0000 0.89600  0.59900  0.93700  Biso   1.000  H
  H33      1.0000 0.68600  0.87500  0.38200  Biso   1.000  H
  H34      1.0000 0.31400  0.37500  0.11800  Biso   1.000  H
  H35      1.0000 0.31400  0.12500  0.61800  Biso   1.000  H
  H36      1.0000 0.68600  0.62500  0.88200  Biso   1.000  H
  H37      1.0000 0.72800  0.84300  0.48900  Biso   1.000  H
  H38      1.0000 0.27200  0.34300  0.01100  Biso   1.000  H
  H39      1.0000 0.27200  0.15700  0.51100  Biso   1.000  H
  H40      1.0000 0.72800  0.65700  0.98900  Biso   1.000  H
  H41      1.0000 0.39200  0.70300  0.29000  Biso   1.000  H
  H42      1.0000 0.60800  0.20300  0.21000  Biso   1.000  H
  H43      1.0000 0.60800  0.29700  0.71000  Biso   1.000  H
  H44      1.0000 0.39200  0.79700  0.79000  Biso   1.000  H
  H45      1.0000 0.39400  0.61200  0.28900  Biso   1.000  H
  H46      1.0000 0.60600  0.11200  0.21100  Biso   1.000  H
  H47      1.0000 0.60600  0.38800  0.71100  Biso   1.000  H
  H48      1.0000 0.39400  0.88800  0.78900  Biso   1.000  H
  H49      1.0000 0.53600  0.62800  0.14600  Biso   1.000  H
  H50      1.0000 0.46400  0.12800  0.35400  Biso   1.000  H
  H51      1.0000 0.46400  0.37200  0.85400  Biso   1.000  H
  H52      1.0000 0.53600  0.87200  0.64600  Biso   1.000  H
  H53      1.0000 0.33800  0.66800  0.08100  Biso   1.000  H
  H54      1.0000 0.66200  0.16800  0.41900  Biso   1.000  H
  H55      1.0000 0.66200  0.33200  0.91900  Biso   1.000  H
  H56      1.0000 0.33800  0.83200  0.58100  Biso   1.000  H
  H57      1.0000 0.36100  0.57600  0.14000  Biso   1.000  H
  H58      1.0000 0.63900  0.07600  0.36000  Biso   1.000  H
  H59      1.0000 0.63900  0.42400  0.86000  Biso   1.000  H
  H60      1.0000 0.36100  0.92400  0.64000  Biso   1.000  H
