data_image0
_cell_length_a       12.748
_cell_length_b       13.227
_cell_length_c       14.46
_cell_angle_alpha    103.344
_cell_angle_beta     109.689
_cell_angle_gamma    97.861

_symmetry_space_group_name_H-M    "P 1"
_symmetry_int_tables_number       1

loop_
  _symmetry_equiv_pos_as_xyz
  'x, y, z'

loop_
  _atom_site_label
  _atom_site_occupancy
  _atom_site_fract_x
  _atom_site_fract_y
  _atom_site_fract_z
  _atom_site_thermal_displace_type
  _atom_site_B_iso_or_equiv
  _atom_site_type_symbol
  Er1      1.0000 0.95261  0.34281  0.07245  Biso   1.000  Er
  Er2      1.0000 0.04739  0.65719  0.92755  Biso   1.000  Er
  Cu1      1.0000 0.66166  0.09309  0.56519  Biso   1.000  Cu
  Cu2      1.0000 0.33834  0.90691  0.43481  Biso   1.000  Cu
  Cu3      1.0000 0.55321  0.77580  0.68919  Biso   1.000  Cu
  Cu4      1.0000 0.44679  0.22420  0.31081  Biso   1.000  Cu
  Cl1      1.0000 0.53916  0.90659  0.58515  Biso   1.000  Cl
  Cl2      1.0000 0.46084  0.09341  0.41485  Biso   1.000  Cl
  O1       1.0000 0.14982  0.33474  0.08649  Biso   1.000  O
  O2       1.0000 0.85018  0.66526  0.91351  Biso   1.000  O
  O3       1.0000 0.02104  0.18684  0.04441  Biso   1.000  O
  O4       1.0000 0.97896  0.81316  0.95559  Biso   1.000  O
  O5       1.0000 0.03638  0.51759  0.16401  Biso   1.000  O
  O6       1.0000 0.96362  0.48241  0.83599  Biso   1.000  O
  O7       1.0000 0.04962  0.63040  0.07452  Biso   1.000  O
  O8       1.0000 0.95038  0.36960  0.92548  Biso   1.000  O
  O9       1.0000 0.79398  0.40613  0.06148  Biso   1.000  O
  O10      1.0000 0.20602  0.59387  0.93852  Biso   1.000  O
  O11      1.0000 0.63062  0.27922  0.99050  Biso   1.000  O
  O12      1.0000 0.36938  0.72078  0.00950  Biso   1.000  O
  O13      1.0000 0.95571  0.31257  0.21791  Biso   1.000  O
  O14      1.0000 0.04429  0.68743  0.78209  Biso   1.000  O
  O15      1.0000 0.00970  0.23740  0.34270  Biso   1.000  O
  O16      1.0000 0.99030  0.76260  0.65730  Biso   1.000  O
  O17      1.0000 0.79990  0.20178  0.96347  Biso   1.000  O
  O18      1.0000 0.20010  0.79822  0.03653  Biso   1.000  O
  H1       1.0000 0.73800  0.21500  0.95800  Biso   1.000  H
  H2       1.0000 0.26200  0.78500  0.04200  Biso   1.000  H
  H3       1.0000 0.79300  0.15500  0.91100  Biso   1.000  H
  H4       1.0000 0.20700  0.84500  0.08900  Biso   1.000  H
  C1       1.0000 0.76380  0.03880  0.41570  Biso   1.000  C
  C2       1.0000 0.23620  0.96120  0.58430  Biso   1.000  C
  H5       1.0000 0.73170  0.09080  0.39060  Biso   1.000  H
  H6       1.0000 0.26830  0.90920  0.60940  Biso   1.000  H
  C3       1.0000 0.82020  0.98150  0.36340  Biso   1.000  C
  C4       1.0000 0.17980  0.01850  0.63660  Biso   1.000  C
  H7       1.0000 0.82590  0.99600  0.30510  Biso   1.000  H
  H8       1.0000 0.17410  0.00400  0.69490  Biso   1.000  H
  C5       1.0000 0.86820  0.90230  0.39779  Biso   1.000  C
  C6       1.0000 0.13180  0.09770  0.60221  Biso   1.000  C
  C7       1.0000 0.85990  0.88900  0.48760  Biso   1.000  C
  C8       1.0000 0.14010  0.11100  0.51240  Biso   1.000  C
  H9       1.0000 0.89300  0.83900  0.51570  Biso   1.000  H
  H10      1.0000 0.10700  0.16100  0.48430  Biso   1.000  H
  C9       1.0000 0.80260  0.94980  0.53550  Biso   1.000  C
  C10      1.0000 0.19740  0.05020  0.46450  Biso   1.000  C
  H11      1.0000 0.79820  0.93890  0.59550  Biso   1.000  H
  H12      1.0000 0.20180  0.06110  0.40450  Biso   1.000  H
  C11      1.0000 0.92000  0.83135  0.33890  Biso   1.000  C
  C12      1.0000 0.08000  0.16865  0.66110  Biso   1.000  C
  C13      1.0000 0.95910  0.86090  0.26770  Biso   1.000  C
  C14      1.0000 0.04090  0.13910  0.73230  Biso   1.000  C
  H13      1.0000 0.95860  0.92880  0.26000  Biso   1.000  H
  H14      1.0000 0.04140  0.07120  0.74000  Biso   1.000  H
  C15      1.0000 0.99900  0.78990  0.20768  Biso   1.000  C
  C16      1.0000 0.00100  0.21010  0.79232  Biso   1.000  C
  H15      1.0000 0.02440  0.81060  0.16010  Biso   1.000  H
  H16      1.0000 0.97560  0.18940  0.83990  Biso   1.000  H
  C17      1.0000 0.00087  0.68880  0.21858  Biso   1.000  C
  C18      1.0000 0.99913  0.31120  0.78142  Biso   1.000  C
  C19      1.0000 0.96750  0.66110  0.29310  Biso   1.000  C
  C20      1.0000 0.03250  0.33890  0.70690  Biso   1.000  C
  H17      1.0000 0.97240  0.59490  0.30370  Biso   1.000  H
  H18      1.0000 0.02760  0.40510  0.69630  Biso   1.000  H
  C21      1.0000 0.92690  0.73160  0.35200  Biso   1.000  C
  C22      1.0000 0.07310  0.26840  0.64800  Biso   1.000  C
  H19      1.0000 0.90390  0.71150  0.40100  Biso   1.000  H
  H20      1.0000 0.09610  0.28850  0.59900  Biso   1.000  H
  C23      1.0000 0.03105  0.60600  0.14695  Biso   1.000  C
  C24      1.0000 0.96895  0.39400  0.85305  Biso   1.000  C
  C25      1.0000 0.48210  0.83820  0.33600  Biso   1.000  C
  C26      1.0000 0.51790  0.16180  0.66400  Biso   1.000  C
  H21      1.0000 0.52370  0.90840  0.37060  Biso   1.000  H
  H22      1.0000 0.47630  0.09160  0.62940  Biso   1.000  H
  C27      1.0000 0.53010  0.76940  0.28560  Biso   1.000  C
  C28      1.0000 0.46990  0.23060  0.71440  Biso   1.000  C
  H23      1.0000 0.60310  0.79340  0.28750  Biso   1.000  H
  H24      1.0000 0.39690  0.20660  0.71250  Biso   1.000  H
  C29      1.0000 0.47130  0.66490  0.23215  Biso   1.000  C
  C30      1.0000 0.52870  0.33510  0.76785  Biso   1.000  C
  C31      1.0000 0.36170  0.63570  0.23140  Biso   1.000  C
  C32      1.0000 0.63830  0.36430  0.76860  Biso   1.000  C
  H25      1.0000 0.31690  0.56690  0.19500  Biso   1.000  H
  H26      1.0000 0.68310  0.43310  0.80500  Biso   1.000  H
  C33      1.0000 0.32000  0.70920  0.28490  Biso   1.000  C
  C34      1.0000 0.68000  0.29080  0.71510  Biso   1.000  C
  H27      1.0000 0.24700  0.68760  0.28400  Biso   1.000  H
  H28      1.0000 0.75300  0.31240  0.71600  Biso   1.000  H
  C35      1.0000 0.52550  0.58870  0.18169  Biso   1.000  C
  C36      1.0000 0.47450  0.41130  0.81831  Biso   1.000  C
  C37      1.0000 0.62130  0.62660  0.16230  Biso   1.000  C
  C38      1.0000 0.37870  0.37340  0.83770  Biso   1.000  C
  H29      1.0000 0.65000  0.69980  0.17950  Biso   1.000  H
  H30      1.0000 0.35000  0.30020  0.82050  Biso   1.000  H
  C39      1.0000 0.67350  0.55680  0.11780  Biso   1.000  C
  C40      1.0000 0.32650  0.44320  0.88220  Biso   1.000  C
  H31      1.0000 0.73750  0.58330  0.10580  Biso   1.000  H
  H32      1.0000 0.26250  0.41670  0.89420  Biso   1.000  H
  C41      1.0000 0.63140  0.44730  0.09075  Biso   1.000  C
  C42      1.0000 0.36860  0.55270  0.90925  Biso   1.000  C
  C43      1.0000 0.53750  0.40970  0.11110  Biso   1.000  C
  C44      1.0000 0.46250  0.59030  0.88890  Biso   1.000  C
  H33      1.0000 0.50910  0.33640  0.09400  Biso   1.000  H
  H34      1.0000 0.49090  0.66360  0.90600  Biso   1.000  H
  C45      1.0000 0.48500  0.47950  0.15640  Biso   1.000  C
  C46      1.0000 0.51500  0.52050  0.84360  Biso   1.000  C
  H35      1.0000 0.42220  0.45280  0.17000  Biso   1.000  H
  H36      1.0000 0.57780  0.54720  0.83000  Biso   1.000  H
  C47      1.0000 0.68860  0.37070  0.04323  Biso   1.000  C
  C48      1.0000 0.31140  0.62930  0.95677  Biso   1.000  C
  C49      1.0000 0.57630  0.64370  0.51580  Biso   1.000  C
  C50      1.0000 0.42370  0.35630  0.48420  Biso   1.000  C
  H37      1.0000 0.51830  0.67220  0.47990  Biso   1.000  H
  H38      1.0000 0.48170  0.32780  0.52010  Biso   1.000  H
  C51      1.0000 0.62250  0.57690  0.46120  Biso   1.000  C
  C52      1.0000 0.37750  0.42310  0.53880  Biso   1.000  C
  H39      1.0000 0.59420  0.55970  0.38980  Biso   1.000  H
  H40      1.0000 0.40580  0.44030  0.61020  Biso   1.000  H
  C53      1.0000 0.71120  0.53470  0.51198  Biso   1.000  C
  C54      1.0000 0.28880  0.46530  0.48802  Biso   1.000  C
  C55      1.0000 0.74400  0.55940  0.61820  Biso   1.000  C
  C56      1.0000 0.25600  0.44060  0.38180  Biso   1.000  C
  H41      1.0000 0.80120  0.53150  0.65590  Biso   1.000  H
  H42      1.0000 0.19880  0.46850  0.34410  Biso   1.000  H
  C57      1.0000 0.69180  0.62530  0.66750  Biso   1.000  C
  C58      1.0000 0.30820  0.37470  0.33250  Biso   1.000  C
  H43      1.0000 0.71410  0.63930  0.73820  Biso   1.000  H
  H44      1.0000 0.28590  0.36070  0.26180  Biso   1.000  H
  C59      1.0000 0.76960  0.46940  0.45558  Biso   1.000  C
  C60      1.0000 0.23040  0.53060  0.54442  Biso   1.000  C
  C61      1.0000 0.77380  0.48400  0.36462  Biso   1.000  C
  C62      1.0000 0.22620  0.51600  0.63538  Biso   1.000  C
  H45      1.0000 0.73630  0.53210  0.33690  Biso   1.000  H
  H46      1.0000 0.26370  0.46790  0.66310  Biso   1.000  H
  C63      1.0000 0.83330  0.42760  0.31467  Biso   1.000  C
  C64      1.0000 0.16670  0.57240  0.68533  Biso   1.000  C
  H47      1.0000 0.83480  0.43800  0.25360  Biso   1.000  H
  H48      1.0000 0.16520  0.56200  0.74640  Biso   1.000  H
  C65      1.0000 0.89020  0.35650  0.35464  Biso   1.000  C
  C66      1.0000 0.10980  0.64350  0.64536  Biso   1.000  C
  C67      1.0000 0.88230  0.33820  0.44300  Biso   1.000  C
  C68      1.0000 0.11770  0.66180  0.55700  Biso   1.000  C
  H49      1.0000 0.91750  0.28810  0.46910  Biso   1.000  H
  H50      1.0000 0.08250  0.71190  0.53090  Biso   1.000  H
  C69      1.0000 0.82270  0.39390  0.49300  Biso   1.000  C
  C70      1.0000 0.17730  0.60610  0.50700  Biso   1.000  C
  H51      1.0000 0.81800  0.38060  0.55210  Biso   1.000  H
  H52      1.0000 0.18200  0.61940  0.44790  Biso   1.000  H
  C71      1.0000 0.95760  0.29700  0.30200  Biso   1.000  C
  C72      1.0000 0.04240  0.70300  0.69800  Biso   1.000  C
  C73      1.0000 0.53440  0.95510  0.82840  Biso   1.000  C
  C74      1.0000 0.46560  0.04490  0.17160  Biso   1.000  C
  H53      1.0000 0.60560  0.98570  0.83030  Biso   1.000  H
  H54      1.0000 0.39440  0.01430  0.16970  Biso   1.000  H
  C75      1.0000 0.47970  0.02000  0.87620  Biso   1.000  C
  C76      1.0000 0.52030  0.98000  0.12380  Biso   1.000  C
  H55      1.0000 0.51400  0.09230  0.90870  Biso   1.000  H
  H56      1.0000 0.48600  0.90770  0.09130  Biso   1.000  H
  C77      1.0000 0.37370  0.97733  0.87547  Biso   1.000  C
  C78      1.0000 0.62630  0.02267  0.12453  Biso   1.000  C
  C79      1.0000 0.33110  0.86840  0.82840  Biso   1.000  C
  C80      1.0000 0.66890  0.13160  0.17160  Biso   1.000  C
  H57      1.0000 0.26200  0.83480  0.82830  Biso   1.000  H
  H58      1.0000 0.73800  0.16520  0.17170  Biso   1.000  H
  C81      1.0000 0.39050  0.80950  0.78170  Biso   1.000  C
  C82      1.0000 0.60950  0.19050  0.21830  Biso   1.000  C
  H59      1.0000 0.35900  0.73670  0.74970  Biso   1.000  H
  H60      1.0000 0.64100  0.26330  0.25030  Biso   1.000  H
  C83      1.0000 0.31020  0.04400  0.92309  Biso   1.000  C
  C84      1.0000 0.68980  0.95600  0.07691  Biso   1.000  C
  C85      1.0000 0.34320  0.15530  0.95270  Biso   1.000  C
  C86      1.0000 0.65680  0.84470  0.04730  Biso   1.000  C
  H61      1.0000 0.40640  0.18840  0.94320  Biso   1.000  H
  H62      1.0000 0.59360  0.81160  0.05680  Biso   1.000  H
  C87      1.0000 0.28290  0.21690  0.99600  Biso   1.000  C
  C88      1.0000 0.71710  0.78310  0.00400  Biso   1.000  C
  H63      1.0000 0.30600  0.29100  0.01550  Biso   1.000  H
  H64      1.0000 0.69400  0.70900  0.98450  Biso   1.000  H
  C89      1.0000 0.18810  0.16930  0.01081  Biso   1.000  C
  C90      1.0000 0.81190  0.83070  0.98919  Biso   1.000  C
  C91      1.0000 0.15530  0.05920  0.98140  Biso   1.000  C
  C92      1.0000 0.84470  0.94080  0.01860  Biso   1.000  C
  H65      1.0000 0.09230  0.02640  0.99130  Biso   1.000  H
  H66      1.0000 0.90770  0.97360  0.00870  Biso   1.000  H
  C93      1.0000 0.21500  0.99710  0.93740  Biso   1.000  C
  C94      1.0000 0.78500  0.00290  0.06260  Biso   1.000  C
  H67      1.0000 0.19100  0.92300  0.91730  Biso   1.000  H
  H68      1.0000 0.80900  0.07700  0.08270  Biso   1.000  H
  C95      1.0000 0.11750  0.23520  0.05097  Biso   1.000  C
  C96      1.0000 0.88250  0.76480  0.94903  Biso   1.000  C
  N1       1.0000 0.75310  0.02340  0.50056  Biso   1.000  N
  N2       1.0000 0.24690  0.97660  0.49944  Biso   1.000  N
  N3       1.0000 0.37790  0.80900  0.33765  Biso   1.000  N
  N4       1.0000 0.62210  0.19100  0.66235  Biso   1.000  N
  N5       1.0000 0.61060  0.66996  0.61842  Biso   1.000  N
  N6       1.0000 0.38940  0.33004  0.38158  Biso   1.000  N
  N7       1.0000 0.49080  0.85133  0.77984  Biso   1.000  N
  N8       1.0000 0.50920  0.14867  0.22016  Biso   1.000  N
  O19      1.0000 0.09150  0.10760  0.22220  Biso   1.000  O
  O20      1.0000 0.90850  0.89240  0.77780  Biso   1.000  O
  H69      1.0000 0.08300  0.15900  0.26500  Biso   1.000  H
  H70      1.0000 0.91700  0.84100  0.73500  Biso   1.000  H
  H71      1.0000 0.06500  0.12200  0.16700  Biso   1.000  H
  H72      1.0000 0.93500  0.87800  0.83300  Biso   1.000  H
  O21      1.0000 0.77870  0.03850  0.79552  Biso   1.000  O
  O22      1.0000 0.22130  0.96150  0.20448  Biso   1.000  O
  H73      1.0000 0.81700  0.99300  0.80100  Biso   1.000  H
  H74      1.0000 0.18300  0.00700  0.19900  Biso   1.000  H
  H75      1.0000 0.72500  0.01200  0.73800  Biso   1.000  H
  H76      1.0000 0.27500  0.98800  0.26200  Biso   1.000  H
