data_image0
_cell_length_a       10.3931
_cell_length_b       14.041
_cell_length_c       18.8847
_cell_angle_alpha    90
_cell_angle_beta     94.024
_cell_angle_gamma    90

_symmetry_space_group_name_H-M    "P 1"
_symmetry_int_tables_number       1

loop_
  _symmetry_equiv_pos_as_xyz
  'x, y, z'

loop_
  _atom_site_label
  _atom_site_occupancy
  _atom_site_fract_x
  _atom_site_fract_y
  _atom_site_fract_z
  _atom_site_thermal_displace_type
  _atom_site_B_iso_or_equiv
  _atom_site_type_symbol
  C1       1.0000 0.86860  0.08260  0.36870  Biso   1.000  C
  C2       1.0000 0.63140  0.58260  0.13130  Biso   1.000  C
  C3       1.0000 0.13140  0.91740  0.63130  Biso   1.000  C
  C4       1.0000 0.36860  0.41740  0.86870  Biso   1.000  C
  H1       1.0000 0.84620  0.14360  0.34720  Biso   1.000  H
  H2       1.0000 0.65380  0.64360  0.15280  Biso   1.000  H
  H3       1.0000 0.15380  0.85640  0.65280  Biso   1.000  H
  H4       1.0000 0.34620  0.35640  0.84720  Biso   1.000  H
  H5       1.0000 0.91850  0.09440  0.41320  Biso   1.000  H
  H6       1.0000 0.58150  0.59440  0.08680  Biso   1.000  H
  H7       1.0000 0.08150  0.90560  0.58680  Biso   1.000  H
  H8       1.0000 0.41850  0.40560  0.91320  Biso   1.000  H
  C5       1.0000 0.80100  0.92600  0.44680  Biso   1.000  C
  C6       1.0000 0.69900  0.42600  0.05320  Biso   1.000  C
  C7       1.0000 0.19900  0.07400  0.55320  Biso   1.000  C
  C8       1.0000 0.30100  0.57400  0.94680  Biso   1.000  C
  H9       1.0000 0.83740  0.87710  0.41840  Biso   1.000  H
  H10      1.0000 0.66260  0.37710  0.08160  Biso   1.000  H
  H11      1.0000 0.16260  0.12290  0.58160  Biso   1.000  H
  H12      1.0000 0.33740  0.62290  0.91840  Biso   1.000  H
  H13      1.0000 0.87110  0.95650  0.47510  Biso   1.000  H
  H14      1.0000 0.62890  0.45650  0.02490  Biso   1.000  H
  H15      1.0000 0.12890  0.04350  0.52490  Biso   1.000  H
  H16      1.0000 0.37110  0.54350  0.97510  Biso   1.000  H
  C9       1.0000 0.70900  0.88200  0.49500  Biso   1.000  C
  C10      1.0000 0.79100  0.38200  0.00500  Biso   1.000  C
  C11      1.0000 0.29100  0.11800  0.50500  Biso   1.000  C
  C12      1.0000 0.20900  0.61800  0.99500  Biso   1.000  C
  H17      1.0000 0.62300  0.90330  0.48230  Biso   1.000  H
  H18      1.0000 0.87700  0.40330  0.01770  Biso   1.000  H
  H19      1.0000 0.37700  0.09670  0.51770  Biso   1.000  H
  H20      1.0000 0.12300  0.59670  0.98230  Biso   1.000  H
  H21      1.0000 0.73290  0.90030  0.54350  Biso   1.000  H
  H22      1.0000 0.76710  0.40030  0.95650  Biso   1.000  H
  H23      1.0000 0.26710  0.09970  0.45650  Biso   1.000  H
  H24      1.0000 0.23290  0.59970  0.04350  Biso   1.000  H
  H25      1.0000 0.71310  0.81390  0.49130  Biso   1.000  H
  H26      1.0000 0.78690  0.31390  0.00870  Biso   1.000  H
  H27      1.0000 0.28690  0.18610  0.50870  Biso   1.000  H
  H28      1.0000 0.21310  0.68610  0.99130  Biso   1.000  H
  C13      1.0000 0.70300  0.13520  0.42440  Biso   1.000  C
  C14      1.0000 0.79700  0.63520  0.07560  Biso   1.000  C
  C15      1.0000 0.29700  0.86480  0.57560  Biso   1.000  C
  C16      1.0000 0.20300  0.36480  0.92440  Biso   1.000  C
  H29      1.0000 0.76080  0.14160  0.46660  Biso   1.000  H
  H30      1.0000 0.73920  0.64160  0.03340  Biso   1.000  H
  H31      1.0000 0.23920  0.85840  0.53340  Biso   1.000  H
  H32      1.0000 0.26080  0.35840  0.96660  Biso   1.000  H
  H33      1.0000 0.72550  0.18310  0.39040  Biso   1.000  H
  H34      1.0000 0.77450  0.68310  0.10960  Biso   1.000  H
  H35      1.0000 0.27450  0.81690  0.60960  Biso   1.000  H
  H36      1.0000 0.22550  0.31690  0.89040  Biso   1.000  H
  C17      1.0000 0.95410  0.02300  0.31710  Biso   1.000  C
  C18      1.0000 0.54590  0.52300  0.18290  Biso   1.000  C
  C19      1.0000 0.04590  0.97700  0.68290  Biso   1.000  C
  C20      1.0000 0.45410  0.47700  0.81710  Biso   1.000  C
  H37      1.0000 0.98540  0.96650  0.34070  Biso   1.000  H
  H38      1.0000 0.51460  0.46650  0.15930  Biso   1.000  H
  H39      1.0000 0.01460  0.03350  0.65930  Biso   1.000  H
  H40      1.0000 0.48540  0.53350  0.84070  Biso   1.000  H
  H41      1.0000 0.02590  0.06140  0.30470  Biso   1.000  H
  H42      1.0000 0.47410  0.56140  0.19530  Biso   1.000  H
  H43      1.0000 0.97410  0.93860  0.69530  Biso   1.000  H
  H44      1.0000 0.52590  0.43860  0.80470  Biso   1.000  H
  H45      1.0000 0.90250  0.00650  0.27480  Biso   1.000  H
  H46      1.0000 0.59750  0.50650  0.22520  Biso   1.000  H
  H47      1.0000 0.09750  0.99350  0.72520  Biso   1.000  H
  H48      1.0000 0.40250  0.49350  0.77480  Biso   1.000  H
  C21      1.0000 0.56300  0.15000  0.44300  Biso   1.000  C
  C22      1.0000 0.93700  0.65000  0.05700  Biso   1.000  C
  C23      1.0000 0.43700  0.85000  0.55700  Biso   1.000  C
  C24      1.0000 0.06300  0.35000  0.94300  Biso   1.000  C
  H49      1.0000 0.50650  0.15040  0.40090  Biso   1.000  H
  H50      1.0000 0.99350  0.65040  0.09910  Biso   1.000  H
  H51      1.0000 0.49350  0.84960  0.59910  Biso   1.000  H
  H52      1.0000 0.00650  0.34960  0.90090  Biso   1.000  H
  H53      1.0000 0.55580  0.21000  0.46750  Biso   1.000  H
  H54      1.0000 0.94420  0.71000  0.03250  Biso   1.000  H
  H55      1.0000 0.44420  0.79000  0.53250  Biso   1.000  H
  H56      1.0000 0.05580  0.29000  0.96750  Biso   1.000  H
  H57      1.0000 0.53820  0.09950  0.47390  Biso   1.000  H
  H58      1.0000 0.96180  0.59950  0.02610  Biso   1.000  H
  H59      1.0000 0.46180  0.90050  0.52610  Biso   1.000  H
  H60      1.0000 0.03820  0.40050  0.97390  Biso   1.000  H
  C25      1.0000 0.28790  0.83680  0.30990  Biso   1.000  C
  C26      1.0000 0.21210  0.33680  0.19010  Biso   1.000  C
  C27      1.0000 0.71210  0.16320  0.69010  Biso   1.000  C
  C28      1.0000 0.78790  0.66320  0.80990  Biso   1.000  C
  C29      1.0000 0.32490  0.77050  0.26120  Biso   1.000  C
  C30      1.0000 0.17510  0.27050  0.23880  Biso   1.000  C
  C31      1.0000 0.67510  0.22950  0.73880  Biso   1.000  C
  C32      1.0000 0.82490  0.72950  0.76120  Biso   1.000  C
  H61      1.0000 0.39220  0.78370  0.23270  Biso   1.000  H
  H62      1.0000 0.10780  0.28370  0.26730  Biso   1.000  H
  H63      1.0000 0.60780  0.21630  0.76730  Biso   1.000  H
  H64      1.0000 0.89220  0.71630  0.73270  Biso   1.000  H
  C33      1.0000 0.26050  0.68420  0.25520  Biso   1.000  C
  C34      1.0000 0.23950  0.18420  0.24480  Biso   1.000  C
  C35      1.0000 0.73950  0.31580  0.74480  Biso   1.000  C
  C36      1.0000 0.76050  0.81580  0.75520  Biso   1.000  C
  H65      1.0000 0.28660  0.64070  0.22190  Biso   1.000  H
  H66      1.0000 0.21340  0.14070  0.27810  Biso   1.000  H
  H67      1.0000 0.71340  0.35930  0.77810  Biso   1.000  H
  H68      1.0000 0.78660  0.85930  0.72190  Biso   1.000  H
  C37      1.0000 0.12810  0.72500  0.34160  Biso   1.000  C
  C38      1.0000 0.37190  0.22500  0.15840  Biso   1.000  C
  C39      1.0000 0.87190  0.27500  0.65840  Biso   1.000  C
  C40      1.0000 0.62810  0.77500  0.84160  Biso   1.000  C
  H69      1.0000 0.06030  0.71050  0.36940  Biso   1.000  H
  H70      1.0000 0.43970  0.21050  0.13060  Biso   1.000  H
  H71      1.0000 0.93970  0.28950  0.63060  Biso   1.000  H
  H72      1.0000 0.56030  0.78950  0.86940  Biso   1.000  H
  C41      1.0000 0.18670  0.81200  0.35120  Biso   1.000  C
  C42      1.0000 0.31330  0.31200  0.14880  Biso   1.000  C
  C43      1.0000 0.81330  0.18800  0.64880  Biso   1.000  C
  C44      1.0000 0.68670  0.68800  0.85120  Biso   1.000  C
  H73      1.0000 0.15920  0.85420  0.38490  Biso   1.000  H
  H74      1.0000 0.34080  0.35420  0.11510  Biso   1.000  H
  H75      1.0000 0.84080  0.14580  0.61510  Biso   1.000  H
  H76      1.0000 0.65920  0.64580  0.88490  Biso   1.000  H
  C45      1.0000 0.71180  0.13610  0.18860  Biso   1.000  C
  C46      1.0000 0.78820  0.63610  0.31140  Biso   1.000  C
  C47      1.0000 0.28820  0.86390  0.81140  Biso   1.000  C
  C48      1.0000 0.21180  0.36390  0.68860  Biso   1.000  C
  C49      1.0000 0.67020  0.20440  0.23580  Biso   1.000  C
  C50      1.0000 0.82980  0.70440  0.26420  Biso   1.000  C
  C51      1.0000 0.32980  0.79560  0.76420  Biso   1.000  C
  C52      1.0000 0.17020  0.29560  0.73580  Biso   1.000  C
  H77      1.0000 0.59880  0.19220  0.26140  Biso   1.000  H
  H78      1.0000 0.90120  0.69220  0.23860  Biso   1.000  H
  H79      1.0000 0.40120  0.80780  0.73860  Biso   1.000  H
  H80      1.0000 0.09880  0.30780  0.76140  Biso   1.000  H
  C53      1.0000 0.73450  0.28940  0.24440  Biso   1.000  C
  C54      1.0000 0.76550  0.78940  0.25560  Biso   1.000  C
  C55      1.0000 0.26550  0.71060  0.75560  Biso   1.000  C
  C56      1.0000 0.23450  0.21060  0.74440  Biso   1.000  C
  H81      1.0000 0.70470  0.33330  0.27620  Biso   1.000  H
  H82      1.0000 0.79530  0.83330  0.22380  Biso   1.000  H
  H83      1.0000 0.29530  0.66670  0.72380  Biso   1.000  H
  H84      1.0000 0.20470  0.16670  0.77620  Biso   1.000  H
  C57      1.0000 0.87840  0.24680  0.16410  Biso   1.000  C
  C58      1.0000 0.62160  0.74680  0.33590  Biso   1.000  C
  C59      1.0000 0.12160  0.75320  0.83590  Biso   1.000  C
  C60      1.0000 0.37840  0.25320  0.66410  Biso   1.000  C
  H85      1.0000 0.95050  0.26070  0.13940  Biso   1.000  H
  H86      1.0000 0.54950  0.76070  0.36060  Biso   1.000  H
  H87      1.0000 0.04950  0.73930  0.86060  Biso   1.000  H
  H88      1.0000 0.45050  0.23930  0.63940  Biso   1.000  H
  C61      1.0000 0.81980  0.15990  0.15200  Biso   1.000  C
  C62      1.0000 0.68020  0.65990  0.34800  Biso   1.000  C
  C63      1.0000 0.18020  0.84010  0.84800  Biso   1.000  C
  C64      1.0000 0.31980  0.34010  0.65200  Biso   1.000  C
  H89      1.0000 0.85160  0.11740  0.11970  Biso   1.000  H
  H90      1.0000 0.64840  0.61740  0.38030  Biso   1.000  H
  H91      1.0000 0.14840  0.88260  0.88030  Biso   1.000  H
  H92      1.0000 0.35160  0.38260  0.61970  Biso   1.000  H
  C65      1.0000 0.16350  0.87090  0.10510  Biso   1.000  C
  C66      1.0000 0.33650  0.37090  0.39490  Biso   1.000  C
  C67      1.0000 0.83650  0.12910  0.89490  Biso   1.000  C
  C68      1.0000 0.66350  0.62910  0.60510  Biso   1.000  C
  H93      1.0000 0.12080  0.86670  0.05780  Biso   1.000  H
  H94      1.0000 0.37920  0.36670  0.44220  Biso   1.000  H
  H95      1.0000 0.87920  0.13330  0.94220  Biso   1.000  H
  H96      1.0000 0.62080  0.63330  0.55780  Biso   1.000  H
  H97      1.0000 0.19510  0.80780  0.11810  Biso   1.000  H
  H98      1.0000 0.30490  0.30780  0.38190  Biso   1.000  H
  H99      1.0000 0.80490  0.19220  0.88190  Biso   1.000  H
  H100     1.0000 0.69510  0.69220  0.61810  Biso   1.000  H
  C69      1.0000 0.06500  0.90090  0.15670  Biso   1.000  C
  C70      1.0000 0.43500  0.40090  0.34330  Biso   1.000  C
  C71      1.0000 0.93500  0.09910  0.84330  Biso   1.000  C
  C72      1.0000 0.56500  0.59910  0.65670  Biso   1.000  C
  H101     1.0000 0.10150  0.89360  0.20450  Biso   1.000  H
  H102     1.0000 0.39850  0.39360  0.29550  Biso   1.000  H
  H103     1.0000 0.89850  0.10640  0.79550  Biso   1.000  H
  H104     1.0000 0.60150  0.60640  0.70450  Biso   1.000  H
  H105     1.0000 0.98940  0.86170  0.14980  Biso   1.000  H
  H106     1.0000 0.51060  0.36170  0.35020  Biso   1.000  H
  H107     1.0000 0.01060  0.13830  0.85020  Biso   1.000  H
  H108     1.0000 0.48940  0.63830  0.64980  Biso   1.000  H
  H109     1.0000 0.04180  0.96640  0.14850  Biso   1.000  H
  H110     1.0000 0.45820  0.46640  0.35150  Biso   1.000  H
  H111     1.0000 0.95820  0.03360  0.85150  Biso   1.000  H
  H112     1.0000 0.54180  0.53360  0.64850  Biso   1.000  H
  C73      1.0000 0.24380  0.04120  0.03590  Biso   1.000  C
  C74      1.0000 0.25620  0.54120  0.46410  Biso   1.000  C
  C75      1.0000 0.75620  0.95880  0.96410  Biso   1.000  C
  C76      1.0000 0.74380  0.45880  0.53590  Biso   1.000  C
  H113     1.0000 0.31350  0.08590  0.03040  Biso   1.000  H
  H114     1.0000 0.18650  0.58590  0.46960  Biso   1.000  H
  H115     1.0000 0.68650  0.91410  0.96960  Biso   1.000  H
  H116     1.0000 0.81350  0.41410  0.53040  Biso   1.000  H
  H117     1.0000 0.22580  0.00960  0.99060  Biso   1.000  H
  H118     1.0000 0.27420  0.50960  0.50940  Biso   1.000  H
  H119     1.0000 0.77420  0.99040  0.00940  Biso   1.000  H
  H120     1.0000 0.72580  0.49040  0.49060  Biso   1.000  H
  C77      1.0000 0.12950  0.09460  0.05260  Biso   1.000  C
  C78      1.0000 0.37050  0.59460  0.44740  Biso   1.000  C
  C79      1.0000 0.87050  0.90540  0.94740  Biso   1.000  C
  C80      1.0000 0.62950  0.40540  0.55260  Biso   1.000  C
  H121     1.0000 0.05570  0.05330  0.04940  Biso   1.000  H
  H122     1.0000 0.44430  0.55330  0.45060  Biso   1.000  H
  H123     1.0000 0.94430  0.94670  0.95060  Biso   1.000  H
  H124     1.0000 0.55570  0.44670  0.54940  Biso   1.000  H
  H125     1.0000 0.11580  0.14620  0.01960  Biso   1.000  H
  H126     1.0000 0.38420  0.64620  0.48040  Biso   1.000  H
  H127     1.0000 0.88420  0.85380  0.98040  Biso   1.000  H
  H128     1.0000 0.61580  0.35380  0.51960  Biso   1.000  H
  H129     1.0000 0.14170  0.11960  0.10000  Biso   1.000  H
  H130     1.0000 0.35830  0.61960  0.40000  Biso   1.000  H
  H131     1.0000 0.85830  0.88040  0.90000  Biso   1.000  H
  H132     1.0000 0.64170  0.38040  0.60000  Biso   1.000  H
  C81      1.0000 0.40570  0.88460  0.04450  Biso   1.000  C
  C82      1.0000 0.09430  0.38460  0.45550  Biso   1.000  C
  C83      1.0000 0.59430  0.11540  0.95550  Biso   1.000  C
  C84      1.0000 0.90570  0.61540  0.54450  Biso   1.000  C
  H133     1.0000 0.35310  0.85910  0.00440  Biso   1.000  H
  H134     1.0000 0.14690  0.35910  0.49560  Biso   1.000  H
  H135     1.0000 0.64690  0.14090  0.99560  Biso   1.000  H
  H136     1.0000 0.85310  0.64090  0.50440  Biso   1.000  H
  H137     1.0000 0.46610  0.92920  0.02600  Biso   1.000  H
  H138     1.0000 0.03390  0.42920  0.47400  Biso   1.000  H
  H139     1.0000 0.53390  0.07080  0.97400  Biso   1.000  H
  H140     1.0000 0.96610  0.57080  0.52600  Biso   1.000  H
  C85      1.0000 0.47780  0.80730  0.07850  Biso   1.000  C
  C86      1.0000 0.02220  0.30730  0.42150  Biso   1.000  C
  C87      1.0000 0.52220  0.19270  0.92150  Biso   1.000  C
  C88      1.0000 0.97780  0.69270  0.57850  Biso   1.000  C
  H141     1.0000 0.53560  0.83220  0.11590  Biso   1.000  H
  H142     1.0000 0.96440  0.33220  0.38410  Biso   1.000  H
  H143     1.0000 0.46440  0.16780  0.88410  Biso   1.000  H
  H144     1.0000 0.03560  0.66780  0.61590  Biso   1.000  H
  H145     1.0000 0.52640  0.77530  0.04430  Biso   1.000  H
  H146     1.0000 0.97360  0.27530  0.45570  Biso   1.000  H
  H147     1.0000 0.47360  0.22470  0.95570  Biso   1.000  H
  H148     1.0000 0.02640  0.72470  0.54430  Biso   1.000  H
  H149     1.0000 0.41930  0.76320  0.09800  Biso   1.000  H
  H150     1.0000 0.08070  0.26320  0.40200  Biso   1.000  H
  H151     1.0000 0.58070  0.23680  0.90200  Biso   1.000  H
  H152     1.0000 0.91930  0.73680  0.59800  Biso   1.000  H
  Cu1      1.0000 0.59876  0.95495  0.29426  Biso   1.000  Cu
  Cu2      1.0000 0.90124  0.45495  0.20574  Biso   1.000  Cu
  Cu3      1.0000 0.40124  0.04505  0.70574  Biso   1.000  Cu
  Cu4      1.0000 0.09876  0.54505  0.79426  Biso   1.000  Cu
  Cu5      1.0000 0.39929  0.01738  0.20051  Biso   1.000  Cu
  Cu6      1.0000 0.10071  0.51738  0.29949  Biso   1.000  Cu
  Cu7      1.0000 0.60071  0.98262  0.79949  Biso   1.000  Cu
  Cu8      1.0000 0.89929  0.48262  0.70051  Biso   1.000  Cu
  N1       1.0000 0.16240  0.65900  0.29450  Biso   1.000  N
  N2       1.0000 0.33760  0.15900  0.20550  Biso   1.000  N
  N3       1.0000 0.83760  0.34100  0.70550  Biso   1.000  N
  N4       1.0000 0.66240  0.84100  0.79450  Biso   1.000  N
  N5       1.0000 0.83860  0.31290  0.20920  Biso   1.000  N
  N6       1.0000 0.66140  0.81290  0.29080  Biso   1.000  N
  N7       1.0000 0.16140  0.68710  0.79080  Biso   1.000  N
  N8       1.0000 0.33860  0.18710  0.70920  Biso   1.000  N
  P1       1.0000 0.71900  0.01750  0.38656  Biso   1.000  P
  P2       1.0000 0.78100  0.51750  0.11344  Biso   1.000  P
  P3       1.0000 0.28100  0.98250  0.61344  Biso   1.000  P
  P4       1.0000 0.21900  0.48250  0.88656  Biso   1.000  P
  P5       1.0000 0.29930  0.95064  0.10257  Biso   1.000  P
  P6       1.0000 0.20070  0.45064  0.39743  Biso   1.000  P
  P7       1.0000 0.70070  0.04936  0.89743  Biso   1.000  P
  P8       1.0000 0.79930  0.54936  0.60257  Biso   1.000  P
  Se1      1.0000 0.36806  0.95863  0.32266  Biso   1.000  Se
  Se2      1.0000 0.13194  0.45863  0.17734  Biso   1.000  Se
  Se3      1.0000 0.63194  0.04137  0.67734  Biso   1.000  Se
  Se4      1.0000 0.86806  0.54137  0.82266  Biso   1.000  Se
  Se5      1.0000 0.63226  0.01576  0.17293  Biso   1.000  Se
  Se6      1.0000 0.86774  0.51576  0.32707  Biso   1.000  Se
  Se7      1.0000 0.36774  0.98424  0.82707  Biso   1.000  Se
  Se8      1.0000 0.13226  0.48424  0.67293  Biso   1.000  Se
  C89      1.0000 0.89300  0.98400  0.38000  Biso   1.000  C
  C90      1.0000 0.60700  0.48400  0.12000  Biso   1.000  C
  C91      1.0000 0.10700  0.01600  0.62000  Biso   1.000  C
  C92      1.0000 0.39300  0.51600  0.88000  Biso   1.000  C
  H153     1.0000 0.94030  0.98720  0.42660  Biso   1.000  H
  H154     1.0000 0.55970  0.48720  0.07340  Biso   1.000  H
  H155     1.0000 0.05970  0.01280  0.57340  Biso   1.000  H
  H156     1.0000 0.44030  0.51280  0.92660  Biso   1.000  H
  H157     1.0000 0.90130  0.92060  0.36120  Biso   1.000  H
  H158     1.0000 0.59870  0.42060  0.13880  Biso   1.000  H
  H159     1.0000 0.09870  0.07940  0.63880  Biso   1.000  H
  H160     1.0000 0.40130  0.57940  0.86120  Biso   1.000  H
  C93      1.0000 0.72200  0.92600  0.45610  Biso   1.000  C
  C94      1.0000 0.77800  0.42600  0.04390  Biso   1.000  C
  C95      1.0000 0.27800  0.07400  0.54390  Biso   1.000  C
  C96      1.0000 0.22200  0.57400  0.95610  Biso   1.000  C
  H161     1.0000 0.63920  0.92610  0.47660  Biso   1.000  H
  H162     1.0000 0.86080  0.42610  0.02340  Biso   1.000  H
  H163     1.0000 0.36080  0.07390  0.52340  Biso   1.000  H
  H164     1.0000 0.13920  0.57390  0.97660  Biso   1.000  H
  H165     1.0000 0.73300  0.86460  0.43420  Biso   1.000  H
  H166     1.0000 0.76700  0.36460  0.06580  Biso   1.000  H
  H167     1.0000 0.26700  0.13540  0.56580  Biso   1.000  H
  H168     1.0000 0.23300  0.63540  0.93420  Biso   1.000  H
  C97      1.0000 0.82800  0.93800  0.51600  Biso   1.000  C
  C98      1.0000 0.67200  0.43800  0.98400  Biso   1.000  C
  C99      1.0000 0.17200  0.06200  0.48400  Biso   1.000  C
  C100     1.0000 0.32800  0.56200  0.01600  Biso   1.000  C
  H169     1.0000 0.83620  0.00450  0.52860  Biso   1.000  H
  H170     1.0000 0.66380  0.50450  0.97140  Biso   1.000  H
  H171     1.0000 0.16380  0.99550  0.47140  Biso   1.000  H
  H172     1.0000 0.33620  0.49550  0.02860  Biso   1.000  H
  H173     1.0000 0.90840  0.91530  0.50090  Biso   1.000  H
  H174     1.0000 0.59160  0.41530  0.99910  Biso   1.000  H
  H175     1.0000 0.09160  0.08470  0.49910  Biso   1.000  H
  H176     1.0000 0.40840  0.58470  0.00090  Biso   1.000  H
  H177     1.0000 0.80540  0.90270  0.55700  Biso   1.000  H
  H178     1.0000 0.69460  0.40270  0.94300  Biso   1.000  H
  H179     1.0000 0.19460  0.09730  0.44300  Biso   1.000  H
  H180     1.0000 0.30540  0.59730  0.05700  Biso   1.000  H
  C101     1.0000 0.62700  0.08500  0.45190  Biso   1.000  C
  C102     1.0000 0.87300  0.58500  0.04810  Biso   1.000  C
  C103     1.0000 0.37300  0.91500  0.54810  Biso   1.000  C
  C104     1.0000 0.12700  0.41500  0.95190  Biso   1.000  C
  H181     1.0000 0.55860  0.04570  0.46860  Biso   1.000  H
  H182     1.0000 0.94140  0.54570  0.03140  Biso   1.000  H
  H183     1.0000 0.44140  0.95430  0.53140  Biso   1.000  H
  H184     1.0000 0.05860  0.45430  0.96860  Biso   1.000  H
  H185     1.0000 0.68370  0.10360  0.49240  Biso   1.000  H
  H186     1.0000 0.81630  0.60360  0.00760  Biso   1.000  H
  H187     1.0000 0.31630  0.89640  0.50760  Biso   1.000  H
  H188     1.0000 0.18370  0.39640  0.99240  Biso   1.000  H
  C105     1.0000 0.94400  0.06000  0.32900  Biso   1.000  C
  C106     1.0000 0.55600  0.56000  0.17100  Biso   1.000  C
  C107     1.0000 0.05600  0.94000  0.67100  Biso   1.000  C
  C108     1.0000 0.44400  0.44000  0.82900  Biso   1.000  C
  H189     1.0000 0.93190  0.03740  0.28140  Biso   1.000  H
  H190     1.0000 0.56810  0.53740  0.21860  Biso   1.000  H
  H191     1.0000 0.06810  0.96260  0.71860  Biso   1.000  H
  H192     1.0000 0.43190  0.46260  0.78140  Biso   1.000  H
  H193     1.0000 0.03420  0.07080  0.34120  Biso   1.000  H
  H194     1.0000 0.46580  0.57080  0.15880  Biso   1.000  H
  H195     1.0000 0.96580  0.92920  0.65880  Biso   1.000  H
  H196     1.0000 0.53420  0.42920  0.84120  Biso   1.000  H
  H197     1.0000 0.89750  0.11830  0.33400  Biso   1.000  H
  H198     1.0000 0.60250  0.61830  0.16600  Biso   1.000  H
  H199     1.0000 0.10250  0.88170  0.66600  Biso   1.000  H
  H200     1.0000 0.39750  0.38170  0.83400  Biso   1.000  H
  C109     1.0000 0.56800  0.17600  0.41500  Biso   1.000  C
  C110     1.0000 0.93200  0.67600  0.08500  Biso   1.000  C
  C111     1.0000 0.43200  0.82400  0.58500  Biso   1.000  C
  C112     1.0000 0.06800  0.32400  0.91500  Biso   1.000  C
  H201     1.0000 0.63330  0.20910  0.39190  Biso   1.000  H
  H202     1.0000 0.86670  0.70910  0.10810  Biso   1.000  H
  H203     1.0000 0.36670  0.79090  0.60810  Biso   1.000  H
  H204     1.0000 0.13330  0.29090  0.89190  Biso   1.000  H
  H205     1.0000 0.53280  0.21610  0.44980  Biso   1.000  H
  H206     1.0000 0.96720  0.71610  0.05020  Biso   1.000  H
  H207     1.0000 0.46720  0.78390  0.55020  Biso   1.000  H
  H208     1.0000 0.03280  0.28390  0.94980  Biso   1.000  H
  H209     1.0000 0.50000  0.15710  0.38040  Biso   1.000  H
  H210     1.0000 0.00000  0.65710  0.11960  Biso   1.000  H
  H211     1.0000 0.50000  0.84290  0.61960  Biso   1.000  H
  H212     1.0000 0.00000  0.34290  0.88040  Biso   1.000  H
