data_image0
_cell_length_a       9.241
_cell_length_b       10.32
_cell_length_c       15.27
_cell_angle_alpha    103.1
_cell_angle_beta     98.92
_cell_angle_gamma    113.85

_symmetry_space_group_name_H-M    "P 1"
_symmetry_int_tables_number       1

loop_
  _symmetry_equiv_pos_as_xyz
  'x, y, z'

loop_
  _atom_site_label
  _atom_site_occupancy
  _atom_site_fract_x
  _atom_site_fract_y
  _atom_site_fract_z
  _atom_site_thermal_displace_type
  _atom_site_B_iso_or_equiv
  _atom_site_type_symbol
  Cu1      1.0000 0.79468  0.98867  0.32330  Biso   1.000  Cu
  Cu2      1.0000 0.20532  0.01133  0.67670  Biso   1.000  Cu
  Cu3      1.0000 0.14320  0.47099  0.16898  Biso   1.000  Cu
  Cu4      1.0000 0.85680  0.52901  0.83102  Biso   1.000  Cu
  S1       1.0000 0.85300  0.79280  0.34420  Biso   1.000  S
  S2       1.0000 0.14700  0.20720  0.65580  Biso   1.000  S
  S3       1.0000 0.89220  0.48510  0.15740  Biso   1.000  S
  S4       1.0000 0.10780  0.51490  0.84260  Biso   1.000  S
  S5       1.0000 0.23920  0.41810  0.30610  Biso   1.000  S
  S6       1.0000 0.76080  0.58190  0.69390  Biso   1.000  S
  S7       1.0000 0.59410  0.91610  0.18320  Biso   1.000  S
  S8       1.0000 0.40590  0.08390  0.81680  Biso   1.000  S
  O1       1.0000 0.55500  0.36310  0.21860  Biso   1.000  O
  O2       1.0000 0.44500  0.63690  0.78140  Biso   1.000  O
  N1       1.0000 0.70300  0.96400  0.50280  Biso   1.000  N
  N2       1.0000 0.29700  0.03600  0.49720  Biso   1.000  N
  N3       1.0000 0.73310  0.04760  0.44450  Biso   1.000  N
  N4       1.0000 0.26690  0.95240  0.55550  Biso   1.000  N
  N5       1.0000 0.91310  0.18170  0.01930  Biso   1.000  N
  N6       1.0000 0.08690  0.81830  0.98070  Biso   1.000  N
  N7       1.0000 0.06900  0.29580  0.05210  Biso   1.000  N
  N8       1.0000 0.93100  0.70420  0.94790  Biso   1.000  N
  N9       1.0000 0.98570  0.15530  0.31040  Biso   1.000  N
  N10      1.0000 0.01430  0.84470  0.68960  Biso   1.000  N
  N11      1.0000 0.32200  0.66150  0.17980  Biso   1.000  N
  N12      1.0000 0.67800  0.33850  0.82020  Biso   1.000  N
  C1       1.0000 0.66490  0.80680  0.47010  Biso   1.000  C
  C2       1.0000 0.33510  0.19320  0.52990  Biso   1.000  C
  C3       1.0000 0.80970  0.77960  0.45350  Biso   1.000  C
  C4       1.0000 0.19030  0.22040  0.54650  Biso   1.000  C
  C5       1.0000 0.68270  0.62360  0.26300  Biso   1.000  C
  C6       1.0000 0.31730  0.37640  0.73700  Biso   1.000  C
  C7       1.0000 0.67970  0.47940  0.27150  Biso   1.000  C
  C8       1.0000 0.32030  0.52060  0.72850  Biso   1.000  C
  C9       1.0000 0.83280  0.46340  0.26240  Biso   1.000  C
  C10      1.0000 0.16720  0.53660  0.73760  Biso   1.000  C
  C11      1.0000 0.74940  0.30830  0.07110  Biso   1.000  C
  C12      1.0000 0.25060  0.69170  0.92890  Biso   1.000  C
  C13      1.0000 0.79310  0.18130  0.07080  Biso   1.000  C
  C14      1.0000 0.20690  0.81870  0.92920  Biso   1.000  C
  C15      1.0000 0.75320  0.17980  0.49460  Biso   1.000  C
  C16      1.0000 0.24680  0.82020  0.50540  Biso   1.000  C
  C17      1.0000 0.73470  0.18040  0.58260  Biso   1.000  C
  C18      1.0000 0.26530  0.81960  0.41740  Biso   1.000  C
  C19      1.0000 0.70290  0.04340  0.58690  Biso   1.000  C
  C20      1.0000 0.29710  0.95660  0.41310  Biso   1.000  C
  C21      1.0000 0.79100  0.30160  0.45190  Biso   1.000  C
  C22      1.0000 0.20900  0.69840  0.54810  Biso   1.000  C
  C23      1.0000 0.68140  0.98250  0.66510  Biso   1.000  C
  C24      1.0000 0.31860  0.01750  0.33490  Biso   1.000  C
  C25      1.0000 0.14550  0.26640  0.98960  Biso   1.000  C
  C26      1.0000 0.85450  0.73360  0.01040  Biso   1.000  C
  C27      1.0000 0.03970  0.13420  0.91910  Biso   1.000  C
  C28      1.0000 0.96030  0.86580  0.08090  Biso   1.000  C
  C29      1.0000 0.89410  0.08150  0.93900  Biso   1.000  C
  C30      1.0000 0.10590  0.91850  0.06100  Biso   1.000  C
  C31      1.0000 0.32230  0.36940  0.00320  Biso   1.000  C
  C32      1.0000 0.67770  0.63060  0.99680  Biso   1.000  C
  C33      1.0000 0.73560  0.94260  0.88980  Biso   1.000  C
  C34      1.0000 0.26440  0.05740  0.11020  Biso   1.000  C
  C35      1.0000 0.09090  0.26270  0.30770  Biso   1.000  C
  C36      1.0000 0.90910  0.73730  0.69230  Biso   1.000  C
  C37      1.0000 0.43490  0.76690  0.18250  Biso   1.000  C
  C38      1.0000 0.56510  0.23310  0.81750  Biso   1.000  C
  H1       1.0000 0.57421  0.75961  0.41019  Biso   1.000  H
  H2       1.0000 0.42579  0.24039  0.58981  Biso   1.000  H
  H3       1.0000 0.61359  0.75775  0.51228  Biso   1.000  H
  H4       1.0000 0.38641  0.24225  0.48772  Biso   1.000  H
  H5       1.0000 0.78934  0.68447  0.45842  Biso   1.000  H
  H6       1.0000 0.21066  0.31553  0.54158  Biso   1.000  H
  H7       1.0000 0.90211  0.85507  0.50456  Biso   1.000  H
  H8       1.0000 0.09789  0.14493  0.49544  Biso   1.000  H
  H9       1.0000 0.68149  0.62533  0.19988  Biso   1.000  H
  H10      1.0000 0.31851  0.37467  0.80012  Biso   1.000  H
  H11      1.0000 0.57961  0.62499  0.27165  Biso   1.000  H
  H12      1.0000 0.42039  0.37501  0.72835  Biso   1.000  H
  H13      1.0000 0.81708  0.36921  0.26693  Biso   1.000  H
  H14      1.0000 0.18292  0.63079  0.73307  Biso   1.000  H
  H15      1.0000 0.92205  0.54023  0.31603  Biso   1.000  H
  H16      1.0000 0.07795  0.45977  0.68397  Biso   1.000  H
  H17      1.0000 0.74107  0.31509  0.00942  Biso   1.000  H
  H18      1.0000 0.25893  0.68491  0.99058  Biso   1.000  H
  H19      1.0000 0.64134  0.27662  0.08078  Biso   1.000  H
  H20      1.0000 0.35866  0.72338  0.91922  Biso   1.000  H
  H21      1.0000 0.69775  0.08454  0.04606  Biso   1.000  H
  H22      1.0000 0.30225  0.91546  0.95394  Biso   1.000  H
  H23      1.0000 0.84110  0.19095  0.13547  Biso   1.000  H
  H24      1.0000 0.15890  0.80905  0.86453  Biso   1.000  H
  H25      1.0000 0.73862  0.26167  0.63201  Biso   1.000  H
  H26      1.0000 0.26138  0.73833  0.36799  Biso   1.000  H
  H27      1.0000 0.89422  0.38612  0.49444  Biso   1.000  H
  H28      1.0000 0.10578  0.61388  0.50556  Biso   1.000  H
  H29      1.0000 0.70756  0.33462  0.45576  Biso   1.000  H
  H30      1.0000 0.29244  0.66538  0.54424  Biso   1.000  H
  H31      1.0000 0.80785  0.30682  0.39197  Biso   1.000  H
  H32      1.0000 0.19215  0.69318  0.60803  Biso   1.000  H
  H33      1.0000 0.59484  0.99553  0.68677  Biso   1.000  H
  H34      1.0000 0.40516  0.00447  0.31323  Biso   1.000  H
  H35      1.0000 0.78270  0.04635  0.71677  Biso   1.000  H
  H36      1.0000 0.21730  0.95365  0.28323  Biso   1.000  H
  H37      1.0000 0.66154  0.88412  0.67168  Biso   1.000  H
  H38      1.0000 0.33846  0.11588  0.32832  Biso   1.000  H
  H39      1.0000 0.06256  0.08737  0.86390  Biso   1.000  H
  H40      1.0000 0.93744  0.91263  0.13610  Biso   1.000  H
  H41      1.0000 0.32702  0.39823  0.94846  Biso   1.000  H
  H42      1.0000 0.67298  0.60177  0.05154  Biso   1.000  H
  H43      1.0000 0.37872  0.30906  0.00492  Biso   1.000  H
  H44      1.0000 0.62128  0.69094  0.99508  Biso   1.000  H
  H45      1.0000 0.39784  0.46149  0.05281  Biso   1.000  H
  H46      1.0000 0.60216  0.53851  0.94719  Biso   1.000  H
  H47      1.0000 0.76258  0.86291  0.88391  Biso   1.000  H
  H48      1.0000 0.23742  0.13709  0.11609  Biso   1.000  H
  H49      1.0000 0.70529  0.95024  0.82833  Biso   1.000  H
  H50      1.0000 0.29471  0.04976  0.17167  Biso   1.000  H
  H51      1.0000 0.63156  0.90557  0.90381  Biso   1.000  H
  H52      1.0000 0.36844  0.09443  0.09619  Biso   1.000  H
  O3       1.0000 0.60500  0.42900  0.33150  Biso   1.000  O
  O4       1.0000 0.39500  0.57100  0.66850  Biso   1.000  O
