data_image0
_cell_length_a       10.224
_cell_length_b       14.7
_cell_length_c       13.069
_cell_angle_alpha    90
_cell_angle_beta     103.63
_cell_angle_gamma    90

_symmetry_space_group_name_H-M    "P 1"
_symmetry_int_tables_number       1

loop_
  _symmetry_equiv_pos_as_xyz
  'x, y, z'

loop_
  _atom_site_label
  _atom_site_occupancy
  _atom_site_fract_x
  _atom_site_fract_y
  _atom_site_fract_z
  _atom_site_thermal_displace_type
  _atom_site_B_iso_or_equiv
  _atom_site_type_symbol
  Cu1      1.0000 0.10232  0.55199  0.24099  Biso   1.000  Cu
  Cu2      1.0000 0.39768  0.05199  0.25901  Biso   1.000  Cu
  Cu3      1.0000 0.89768  0.44801  0.75901  Biso   1.000  Cu
  Cu4      1.0000 0.60232  0.94801  0.74099  Biso   1.000  Cu
  Cu5      1.0000 0.28858  0.67322  0.29875  Biso   1.000  Cu
  Cu6      1.0000 0.21142  0.17322  0.20125  Biso   1.000  Cu
  Cu7      1.0000 0.71142  0.32678  0.70125  Biso   1.000  Cu
  Cu8      1.0000 0.78858  0.82678  0.79875  Biso   1.000  Cu
  I1       1.0000 0.26271  0.56395  0.12420  Biso   1.000  I
  I2       1.0000 0.23729  0.06395  0.37580  Biso   1.000  I
  I3       1.0000 0.73729  0.43605  0.87580  Biso   1.000  I
  I4       1.0000 0.76271  0.93605  0.62420  Biso   1.000  I
  I5       1.0000 0.15593  0.60958  0.43588  Biso   1.000  I
  I6       1.0000 0.34407  0.10958  0.06412  Biso   1.000  I
  I7       1.0000 0.84407  0.39042  0.56412  Biso   1.000  I
  I8       1.0000 0.65593  0.89042  0.93588  Biso   1.000  I
  N1       1.0000 0.46570  0.90060  0.25420  Biso   1.000  N
  N2       1.0000 0.03430  0.40060  0.24580  Biso   1.000  N
  N3       1.0000 0.53430  0.09940  0.74580  Biso   1.000  N
  N4       1.0000 0.96570  0.59940  0.75420  Biso   1.000  N
  N5       1.0000 0.19220  0.78970  0.23880  Biso   1.000  N
  N6       1.0000 0.30780  0.28970  0.26120  Biso   1.000  N
  N7       1.0000 0.80780  0.21030  0.76120  Biso   1.000  N
  N8       1.0000 0.69220  0.71030  0.73880  Biso   1.000  N
  N9       1.0000 0.23660  0.84990  0.17630  Biso   1.000  N
  N10      1.0000 0.26340  0.34990  0.32370  Biso   1.000  N
  N11      1.0000 0.76340  0.15010  0.82370  Biso   1.000  N
  N12      1.0000 0.73660  0.65010  0.67630  Biso   1.000  N
  N13      1.0000 0.49020  0.69280  0.34230  Biso   1.000  N
  N14      1.0000 0.00980  0.19280  0.15770  Biso   1.000  N
  N15      1.0000 0.50980  0.30720  0.65770  Biso   1.000  N
  N16      1.0000 0.99020  0.80720  0.84230  Biso   1.000  N
  N17      1.0000 0.55760  0.77190  0.37080  Biso   1.000  N
  N18      1.0000 0.94240  0.27190  0.12920  Biso   1.000  N
  N19      1.0000 0.44240  0.22810  0.62920  Biso   1.000  N
  N20      1.0000 0.05760  0.72810  0.87080  Biso   1.000  N
  N21      1.0000 0.59750  0.06030  0.32300  Biso   1.000  N
  N22      1.0000 0.90250  0.56030  0.17700  Biso   1.000  N
  N23      1.0000 0.40250  0.93970  0.67700  Biso   1.000  N
  N24      1.0000 0.09750  0.43970  0.82300  Biso   1.000  N
  C1       1.0000 0.06160  0.80810  0.22450  Biso   1.000  C
  C2       1.0000 0.43840  0.30810  0.27550  Biso   1.000  C
  C3       1.0000 0.93840  0.19190  0.77550  Biso   1.000  C
  C4       1.0000 0.56160  0.69190  0.72450  Biso   1.000  C
  C5       1.0000 0.02260  0.87610  0.15050  Biso   1.000  C
  C6       1.0000 0.47740  0.37610  0.34950  Biso   1.000  C
  C7       1.0000 0.97740  0.12390  0.84950  Biso   1.000  C
  C8       1.0000 0.52260  0.62390  0.65050  Biso   1.000  C
  C9       1.0000 0.13740  0.90240  0.12340  Biso   1.000  C
  C10      1.0000 0.36260  0.40240  0.37660  Biso   1.000  C
  C11      1.0000 0.86260  0.09760  0.87660  Biso   1.000  C
  C12      1.0000 0.63740  0.59760  0.62340  Biso   1.000  C
  C13      1.0000 0.37540  0.84830  0.16880  Biso   1.000  C
  C14      1.0000 0.12460  0.34830  0.33120  Biso   1.000  C
  C15      1.0000 0.62460  0.15170  0.83120  Biso   1.000  C
  C16      1.0000 0.87540  0.65170  0.66880  Biso   1.000  C
  C17      1.0000 0.58540  0.63130  0.35160  Biso   1.000  C
  C18      1.0000 0.91460  0.13130  0.14840  Biso   1.000  C
  C19      1.0000 0.41460  0.36870  0.64840  Biso   1.000  C
  C20      1.0000 0.08540  0.86870  0.85160  Biso   1.000  C
  C21      1.0000 0.71290  0.66950  0.38320  Biso   1.000  C
  C22      1.0000 0.78710  0.16950  0.11680  Biso   1.000  C
  C23      1.0000 0.28710  0.33050  0.61680  Biso   1.000  C
  C24      1.0000 0.21290  0.83050  0.88320  Biso   1.000  C
  C25      1.0000 0.69110  0.75880  0.39500  Biso   1.000  C
  C26      1.0000 0.80890  0.25880  0.10500  Biso   1.000  C
  C27      1.0000 0.30890  0.24120  0.60500  Biso   1.000  C
  C28      1.0000 0.19110  0.74120  0.89500  Biso   1.000  C
  C29      1.0000 0.48430  0.85940  0.35810  Biso   1.000  C
  C30      1.0000 0.01570  0.35940  0.14190  Biso   1.000  C
  C31      1.0000 0.51570  0.14060  0.64190  Biso   1.000  C
  C32      1.0000 0.98430  0.64060  0.85810  Biso   1.000  C
  C33      1.0000 0.59470  0.92200  0.22650  Biso   1.000  C
  C34      1.0000 0.90530  0.42200  0.27350  Biso   1.000  C
  C35      1.0000 0.40530  0.07800  0.77350  Biso   1.000  C
  C36      1.0000 0.09470  0.57800  0.72650  Biso   1.000  C
  C37      1.0000 0.67190  0.99350  0.29870  Biso   1.000  C
  C38      1.0000 0.82810  0.49350  0.20130  Biso   1.000  C
  C39      1.0000 0.32810  0.00650  0.70130  Biso   1.000  C
  C40      1.0000 0.17190  0.50650  0.79870  Biso   1.000  C
  C41      1.0000 0.80990  0.99180  0.33470  Biso   1.000  C
  C42      1.0000 0.69010  0.49180  0.16530  Biso   1.000  C
  C43      1.0000 0.19010  0.00820  0.66530  Biso   1.000  C
  C44      1.0000 0.30990  0.50820  0.83470  Biso   1.000  C
  C45      1.0000 0.87450  0.06210  0.39780  Biso   1.000  C
  C46      1.0000 0.62550  0.56210  0.10220  Biso   1.000  C
  C47      1.0000 0.12550  0.93790  0.60220  Biso   1.000  C
  C48      1.0000 0.37450  0.43790  0.89780  Biso   1.000  C
  C49      1.0000 0.79770  0.13000  0.42530  Biso   1.000  C
  C50      1.0000 0.70230  0.63000  0.07470  Biso   1.000  C
  C51      1.0000 0.20230  0.87000  0.57470  Biso   1.000  C
  C52      1.0000 0.29770  0.37000  0.92530  Biso   1.000  C
  C53      1.0000 0.65990  0.12770  0.38560  Biso   1.000  C
  C54      1.0000 0.84010  0.62770  0.11440  Biso   1.000  C
  C55      1.0000 0.34010  0.87230  0.61440  Biso   1.000  C
  C56      1.0000 0.15990  0.37230  0.88560  Biso   1.000  C
  H1       1.0000 0.00000  0.77600  0.26200  Biso   1.000  H
  H2       1.0000 0.50000  0.27600  0.23800  Biso   1.000  H
  H3       1.0000 0.00000  0.22400  0.73800  Biso   1.000  H
  H4       1.0000 0.50000  0.72400  0.76200  Biso   1.000  H
  H5       1.0000 0.93200  0.90100  0.12200  Biso   1.000  H
  H6       1.0000 0.56800  0.40100  0.37800  Biso   1.000  H
  H7       1.0000 0.06800  0.09900  0.87800  Biso   1.000  H
  H8       1.0000 0.43200  0.59900  0.62200  Biso   1.000  H
  H9       1.0000 0.14600  0.95200  0.07400  Biso   1.000  H
  H10      1.0000 0.35400  0.45200  0.42600  Biso   1.000  H
  H11      1.0000 0.85400  0.04800  0.92600  Biso   1.000  H
  H12      1.0000 0.64600  0.54800  0.57400  Biso   1.000  H
  H13      1.0000 0.40700  0.78500  0.17100  Biso   1.000  H
  H14      1.0000 0.09300  0.28500  0.32900  Biso   1.000  H
  H15      1.0000 0.59300  0.21500  0.82900  Biso   1.000  H
  H16      1.0000 0.90700  0.71500  0.67100  Biso   1.000  H
  H17      1.0000 0.38400  0.87200  0.10100  Biso   1.000  H
  H18      1.0000 0.11600  0.37200  0.39900  Biso   1.000  H
  H19      1.0000 0.61600  0.12800  0.89900  Biso   1.000  H
  H20      1.0000 0.88400  0.62800  0.60100  Biso   1.000  H
  H21      1.0000 0.56800  0.56500  0.33900  Biso   1.000  H
  H22      1.0000 0.93200  0.06500  0.16100  Biso   1.000  H
  H23      1.0000 0.43200  0.43500  0.66100  Biso   1.000  H
  H24      1.0000 0.06800  0.93500  0.83900  Biso   1.000  H
  H25      1.0000 0.80200  0.63700  0.39500  Biso   1.000  H
  H26      1.0000 0.69800  0.13700  0.10500  Biso   1.000  H
  H27      1.0000 0.19800  0.36300  0.60500  Biso   1.000  H
  H28      1.0000 0.30200  0.86300  0.89500  Biso   1.000  H
  H29      1.0000 0.76100  0.80600  0.41700  Biso   1.000  H
  H30      1.0000 0.73900  0.30600  0.08300  Biso   1.000  H
  H31      1.0000 0.23900  0.19400  0.58300  Biso   1.000  H
  H32      1.0000 0.26100  0.69400  0.91700  Biso   1.000  H
  H33      1.0000 0.53000  0.90300  0.41100  Biso   1.000  H
  H34      1.0000 0.97000  0.40300  0.08900  Biso   1.000  H
  H35      1.0000 0.47000  0.09700  0.58900  Biso   1.000  H
  H36      1.0000 0.03000  0.59700  0.91100  Biso   1.000  H
  H37      1.0000 0.39600  0.85000  0.37300  Biso   1.000  H
  H38      1.0000 0.10400  0.35000  0.12700  Biso   1.000  H
  H39      1.0000 0.60400  0.15000  0.62700  Biso   1.000  H
  H40      1.0000 0.89600  0.65000  0.87300  Biso   1.000  H
  H41      1.0000 0.64900  0.86700  0.22900  Biso   1.000  H
  H42      1.0000 0.85100  0.36700  0.27100  Biso   1.000  H
  H43      1.0000 0.35100  0.13300  0.77100  Biso   1.000  H
  H44      1.0000 0.14900  0.63300  0.72900  Biso   1.000  H
  H45      1.0000 0.57800  0.94300  0.15400  Biso   1.000  H
  H46      1.0000 0.92200  0.44300  0.34600  Biso   1.000  H
  H47      1.0000 0.42200  0.05700  0.84600  Biso   1.000  H
  H48      1.0000 0.07800  0.55700  0.65400  Biso   1.000  H
  H49      1.0000 0.86300  0.94000  0.31800  Biso   1.000  H
  H50      1.0000 0.63700  0.44000  0.18200  Biso   1.000  H
  H51      1.0000 0.13700  0.06000  0.68200  Biso   1.000  H
  H52      1.0000 0.36300  0.56000  0.81800  Biso   1.000  H
  H53      1.0000 0.97400  0.06300  0.42300  Biso   1.000  H
  H54      1.0000 0.52600  0.56300  0.07700  Biso   1.000  H
  H55      1.0000 0.02600  0.93700  0.57700  Biso   1.000  H
  H56      1.0000 0.47400  0.43700  0.92300  Biso   1.000  H
  H57      1.0000 0.84100  0.18000  0.47100  Biso   1.000  H
  H58      1.0000 0.65900  0.68000  0.02900  Biso   1.000  H
  H59      1.0000 0.15900  0.82000  0.52900  Biso   1.000  H
  H60      1.0000 0.34100  0.32000  0.97100  Biso   1.000  H
  H61      1.0000 0.60700  0.17800  0.40500  Biso   1.000  H
  H62      1.0000 0.89300  0.67800  0.09500  Biso   1.000  H
  H63      1.0000 0.39300  0.82200  0.59500  Biso   1.000  H
  H64      1.0000 0.10700  0.32200  0.90500  Biso   1.000  H
