data_image0
_cell_length_a       7.0696
_cell_length_b       17.2872
_cell_length_c       6.6046
_cell_angle_alpha    90
_cell_angle_beta     115.198
_cell_angle_gamma    90

_symmetry_space_group_name_H-M    "P 1"
_symmetry_int_tables_number       1

loop_
  _symmetry_equiv_pos_as_xyz
  'x, y, z'

loop_
  _atom_site_label
  _atom_site_occupancy
  _atom_site_fract_x
  _atom_site_fract_y
  _atom_site_fract_z
  _atom_site_thermal_displace_type
  _atom_site_B_iso_or_equiv
  _atom_site_type_symbol
  Cu1      1.0000 0.16852  0.27168  0.06728  Biso   1.000  Cu
  Cu2      1.0000 0.83148  0.77168  0.43272  Biso   1.000  Cu
  Cu3      1.0000 0.83148  0.72832  0.93272  Biso   1.000  Cu
  Cu4      1.0000 0.16852  0.22832  0.56728  Biso   1.000  Cu
  Cl1      1.0000 0.36545  0.30907  0.42540  Biso   1.000  Cl
  Cl2      1.0000 0.63455  0.80907  0.07460  Biso   1.000  Cl
  Cl3      1.0000 0.63455  0.69093  0.57460  Biso   1.000  Cl
  Cl4      1.0000 0.36545  0.19093  0.92540  Biso   1.000  Cl
  N1       1.0000 0.96990  0.18754  0.09910  Biso   1.000  N
  N2       1.0000 0.03010  0.68754  0.40090  Biso   1.000  N
  N3       1.0000 0.03010  0.81246  0.90090  Biso   1.000  N
  N4       1.0000 0.96990  0.31246  0.59910  Biso   1.000  N
  N5       1.0000 0.00130  0.16009  0.30330  Biso   1.000  N
  N6       1.0000 0.99870  0.66009  0.19670  Biso   1.000  N
  N7       1.0000 0.99870  0.83991  0.69670  Biso   1.000  N
  N8       1.0000 0.00130  0.33991  0.80330  Biso   1.000  N
  C1       1.0000 0.84950  0.14859  0.91670  Biso   1.000  C
  C2       1.0000 0.15050  0.64859  0.58330  Biso   1.000  C
  C3       1.0000 0.15050  0.85141  0.08330  Biso   1.000  C
  C4       1.0000 0.84950  0.35141  0.41670  Biso   1.000  C
  H1       1.0000 0.82600  0.17040  0.77760  Biso   1.000  H
  H2       1.0000 0.17400  0.67040  0.72240  Biso   1.000  H
  H3       1.0000 0.17400  0.82960  0.22240  Biso   1.000  H
  H4       1.0000 0.82600  0.32960  0.27760  Biso   1.000  H
  C5       1.0000 0.75410  0.07678  0.91550  Biso   1.000  C
  C6       1.0000 0.24590  0.57678  0.58450  Biso   1.000  C
  C7       1.0000 0.24590  0.92322  0.08450  Biso   1.000  C
  C8       1.0000 0.75410  0.42322  0.41550  Biso   1.000  C
  C9       1.0000 0.79510  0.04779  0.12630  Biso   1.000  C
  C10      1.0000 0.20490  0.54779  0.37370  Biso   1.000  C
  C11      1.0000 0.20490  0.95221  0.87370  Biso   1.000  C
  C12      1.0000 0.79510  0.45221  0.62630  Biso   1.000  C
  H5       1.0000 0.74240  0.99940  0.14250  Biso   1.000  H
  H6       1.0000 0.25760  0.49940  0.35750  Biso   1.000  H
  H7       1.0000 0.25760  0.00060  0.85750  Biso   1.000  H
  H8       1.0000 0.74240  0.50060  0.64250  Biso   1.000  H
  C13      1.0000 0.91590  0.09196  0.31280  Biso   1.000  C
  C14      1.0000 0.08410  0.59196  0.18720  Biso   1.000  C
  C15      1.0000 0.08410  0.90804  0.68720  Biso   1.000  C
  C16      1.0000 0.91590  0.40804  0.81280  Biso   1.000  C
  H9       1.0000 0.93900  0.07270  0.45450  Biso   1.000  H
  H10      1.0000 0.06100  0.57270  0.04550  Biso   1.000  H
  H11      1.0000 0.06100  0.92730  0.54550  Biso   1.000  H
  H12      1.0000 0.93900  0.42730  0.95450  Biso   1.000  H
  C17      1.0000 0.51180  0.08052  0.50710  Biso   1.000  C
  C18      1.0000 0.48820  0.58052  0.99290  Biso   1.000  C
  C19      1.0000 0.48820  0.91948  0.49290  Biso   1.000  C
  C20      1.0000 0.51180  0.41948  0.00710  Biso   1.000  C
  H13      1.0000 0.51900  0.13480  0.51140  Biso   1.000  H
  H14      1.0000 0.48100  0.63480  0.98860  Biso   1.000  H
  H15      1.0000 0.48100  0.86520  0.48860  Biso   1.000  H
  H16      1.0000 0.51900  0.36520  0.01140  Biso   1.000  H
  C21      1.0000 0.62370  0.03783  0.70230  Biso   1.000  C
  C22      1.0000 0.37630  0.53783  0.79770  Biso   1.000  C
  C23      1.0000 0.37630  0.96217  0.29770  Biso   1.000  C
  C24      1.0000 0.62370  0.46217  0.20230  Biso   1.000  C
  C25      1.0000 0.60930  0.95668  0.69240  Biso   1.000  C
  C26      1.0000 0.39070  0.45668  0.80760  Biso   1.000  C
  C27      1.0000 0.39070  0.04332  0.30760  Biso   1.000  C
  C28      1.0000 0.60930  0.54332  0.19240  Biso   1.000  C
  H17      1.0000 0.68260  0.92730  0.82230  Biso   1.000  H
  H18      1.0000 0.31740  0.42730  0.67770  Biso   1.000  H
  H19      1.0000 0.31740  0.07270  0.17770  Biso   1.000  H
  H20      1.0000 0.68260  0.57270  0.32230  Biso   1.000  H
