data_image0
_cell_length_a       7.1998
_cell_length_b       17.7305
_cell_length_c       6.7135
_cell_angle_alpha    90
_cell_angle_beta     115.668
_cell_angle_gamma    90

_symmetry_space_group_name_H-M    "P 1"
_symmetry_int_tables_number       1

loop_
  _symmetry_equiv_pos_as_xyz
  'x, y, z'

loop_
  _atom_site_label
  _atom_site_occupancy
  _atom_site_fract_x
  _atom_site_fract_y
  _atom_site_fract_z
  _atom_site_thermal_displace_type
  _atom_site_B_iso_or_equiv
  _atom_site_type_symbol
  Cu1      1.0000 0.14544  0.26912  0.04410  Biso   1.000  Cu
  Cu2      1.0000 0.85456  0.76912  0.45590  Biso   1.000  Cu
  Cu3      1.0000 0.85456  0.73088  0.95590  Biso   1.000  Cu
  Cu4      1.0000 0.14544  0.23088  0.54410  Biso   1.000  Cu
  Br1      1.0000 0.35289  0.31465  0.41093  Biso   1.000  Br
  Br2      1.0000 0.64711  0.81465  0.08907  Biso   1.000  Br
  Br3      1.0000 0.64711  0.68535  0.58907  Biso   1.000  Br
  Br4      1.0000 0.35289  0.18535  0.91093  Biso   1.000  Br
  N1       1.0000 0.95650  0.18719  0.08230  Biso   1.000  N
  N2       1.0000 0.04350  0.68719  0.41770  Biso   1.000  N
  N3       1.0000 0.04350  0.81281  0.91770  Biso   1.000  N
  N4       1.0000 0.95650  0.31281  0.58230  Biso   1.000  N
  N5       1.0000 0.98960  0.16187  0.28470  Biso   1.000  N
  N6       1.0000 0.01040  0.66187  0.21530  Biso   1.000  N
  N7       1.0000 0.01040  0.83813  0.71530  Biso   1.000  N
  N8       1.0000 0.98960  0.33813  0.78470  Biso   1.000  N
  C1       1.0000 0.84070  0.14781  0.90380  Biso   1.000  C
  C2       1.0000 0.15930  0.64781  0.59620  Biso   1.000  C
  C3       1.0000 0.15930  0.85219  0.09620  Biso   1.000  C
  C4       1.0000 0.84070  0.35219  0.40380  Biso   1.000  C
  H1       1.0000 0.81650  0.16830  0.76560  Biso   1.000  H
  H2       1.0000 0.18350  0.66830  0.73440  Biso   1.000  H
  H3       1.0000 0.18350  0.83170  0.23440  Biso   1.000  H
  H4       1.0000 0.81650  0.33170  0.26560  Biso   1.000  H
  C5       1.0000 0.75090  0.07730  0.90650  Biso   1.000  C
  C6       1.0000 0.24910  0.57730  0.59350  Biso   1.000  C
  C7       1.0000 0.24910  0.92270  0.09350  Biso   1.000  C
  C8       1.0000 0.75090  0.42270  0.40650  Biso   1.000  C
  C9       1.0000 0.79410  0.05016  0.11610  Biso   1.000  C
  C10      1.0000 0.20590  0.55016  0.38390  Biso   1.000  C
  C11      1.0000 0.20590  0.94984  0.88390  Biso   1.000  C
  C12      1.0000 0.79410  0.44984  0.61610  Biso   1.000  C
  H5       1.0000 0.74550  0.00260  0.13400  Biso   1.000  H
  H6       1.0000 0.25450  0.50260  0.36600  Biso   1.000  H
  H7       1.0000 0.25450  0.99740  0.86600  Biso   1.000  H
  H8       1.0000 0.74550  0.49740  0.63400  Biso   1.000  H
  C13      1.0000 0.91060  0.09447  0.29940  Biso   1.000  C
  C14      1.0000 0.08940  0.59447  0.20060  Biso   1.000  C
  C15      1.0000 0.08940  0.90553  0.70060  Biso   1.000  C
  C16      1.0000 0.91060  0.40553  0.79940  Biso   1.000  C
  H9       1.0000 0.93510  0.07640  0.44030  Biso   1.000  H
  H10      1.0000 0.06490  0.57640  0.05970  Biso   1.000  H
  H11      1.0000 0.06490  0.92360  0.55970  Biso   1.000  H
  H12      1.0000 0.93510  0.42360  0.94030  Biso   1.000  H
  C17      1.0000 0.50510  0.07840  0.50550  Biso   1.000  C
  C18      1.0000 0.49490  0.57840  0.99450  Biso   1.000  C
  C19      1.0000 0.49490  0.92160  0.49450  Biso   1.000  C
  C20      1.0000 0.50510  0.42160  0.00550  Biso   1.000  C
  H13      1.0000 0.50780  0.13140  0.50810  Biso   1.000  H
  H14      1.0000 0.49220  0.63140  0.99190  Biso   1.000  H
  H15      1.0000 0.49220  0.86860  0.49190  Biso   1.000  H
  H16      1.0000 0.50780  0.36860  0.00810  Biso   1.000  H
  C21      1.0000 0.62250  0.03817  0.69850  Biso   1.000  C
  C22      1.0000 0.37750  0.53817  0.80150  Biso   1.000  C
  C23      1.0000 0.37750  0.96183  0.30150  Biso   1.000  C
  C24      1.0000 0.62250  0.46183  0.19850  Biso   1.000  C
  C25      1.0000 0.61520  0.95881  0.68930  Biso   1.000  C
  C26      1.0000 0.38480  0.45881  0.81070  Biso   1.000  C
  C27      1.0000 0.38480  0.04119  0.31070  Biso   1.000  C
  C28      1.0000 0.61520  0.54119  0.18930  Biso   1.000  C
  H17      1.0000 0.69310  0.93070  0.81740  Biso   1.000  H
  H18      1.0000 0.30690  0.43070  0.68260  Biso   1.000  H
  H19      1.0000 0.30690  0.06930  0.18260  Biso   1.000  H
  H20      1.0000 0.69310  0.56930  0.31740  Biso   1.000  H
