data_image0
_cell_length_a       9.1926
_cell_length_b       29.864
_cell_length_c       12.7461
_cell_angle_alpha    90
_cell_angle_beta     90.282
_cell_angle_gamma    90

_symmetry_space_group_name_H-M    "P 1"
_symmetry_int_tables_number       1

loop_
  _symmetry_equiv_pos_as_xyz
  'x, y, z'

loop_
  _atom_site_label
  _atom_site_occupancy
  _atom_site_fract_x
  _atom_site_fract_y
  _atom_site_fract_z
  _atom_site_thermal_displace_type
  _atom_site_B_iso_or_equiv
  _atom_site_type_symbol
  I1       1.0000 0.38223  0.11529  0.50600  Biso   1.000  I
  I2       1.0000 0.11777  0.61529  0.99400  Biso   1.000  I
  I3       1.0000 0.61777  0.88471  0.49400  Biso   1.000  I
  I4       1.0000 0.88223  0.38471  0.00600  Biso   1.000  I
  I5       1.0000 0.26436  0.14090  0.99854  Biso   1.000  I
  I6       1.0000 0.23564  0.64090  0.50146  Biso   1.000  I
  I7       1.0000 0.73564  0.85911  0.00146  Biso   1.000  I
  I8       1.0000 0.76436  0.35911  0.49854  Biso   1.000  I
  Cu1      1.0000 0.66017  0.11857  0.50516  Biso   1.000  Cu
  Cu2      1.0000 0.83983  0.61857  0.99484  Biso   1.000  Cu
  Cu3      1.0000 0.33983  0.88143  0.49484  Biso   1.000  Cu
  Cu4      1.0000 0.16017  0.38143  0.00516  Biso   1.000  Cu
  Cu5      1.0000 0.58185  0.13405  0.00804  Biso   1.000  Cu
  Cu6      1.0000 0.91815  0.63405  0.49196  Biso   1.000  Cu
  Cu7      1.0000 0.41815  0.86595  0.99196  Biso   1.000  Cu
  Cu8      1.0000 0.08185  0.36595  0.50804  Biso   1.000  Cu
  N1       1.0000 0.77840  0.13731  0.38064  Biso   1.000  N
  N2       1.0000 0.72160  0.63731  0.11936  Biso   1.000  N
  N3       1.0000 0.22160  0.86269  0.61936  Biso   1.000  N
  N4       1.0000 0.27840  0.36269  0.88064  Biso   1.000  N
  N5       1.0000 0.86730  0.20463  0.45269  Biso   1.000  N
  N6       1.0000 0.63270  0.70463  0.04731  Biso   1.000  N
  N7       1.0000 0.13270  0.79537  0.54731  Biso   1.000  N
  N8       1.0000 0.36730  0.29537  0.95269  Biso   1.000  N
  N9       1.0000 0.99640  0.17413  0.32035  Biso   1.000  N
  N10      1.0000 0.50360  0.67413  0.17965  Biso   1.000  N
  N11      1.0000 0.00360  0.82587  0.67965  Biso   1.000  N
  N12      1.0000 0.49640  0.32587  0.82035  Biso   1.000  N
  N13      1.0000 0.77420  0.10097  0.63475  Biso   1.000  N
  N14      1.0000 0.72580  0.60097  0.86525  Biso   1.000  N
  N15      1.0000 0.22580  0.89903  0.36525  Biso   1.000  N
  N16      1.0000 0.27420  0.39903  0.13475  Biso   1.000  N
  N17      1.0000 0.97370  0.05846  0.70760  Biso   1.000  N
  N18      1.0000 0.52630  0.55846  0.79240  Biso   1.000  N
  N19      1.0000 0.02630  0.94154  0.29240  Biso   1.000  N
  N20      1.0000 0.47370  0.44154  0.20760  Biso   1.000  N
  N21      1.0000 0.83140  0.02795  0.58211  Biso   1.000  N
  N22      1.0000 0.66860  0.52795  0.91789  Biso   1.000  N
  N23      1.0000 0.16860  0.97205  0.41789  Biso   1.000  N
  N24      1.0000 0.33140  0.47205  0.08211  Biso   1.000  N
  N25      1.0000 0.60600  0.09645  0.88667  Biso   1.000  N
  N26      1.0000 0.89400  0.59645  0.61333  Biso   1.000  N
  N27      1.0000 0.39400  0.90355  0.11333  Biso   1.000  N
  N28      1.0000 0.10600  0.40355  0.38667  Biso   1.000  N
  N29      1.0000 0.73130  0.03631  0.96644  Biso   1.000  N
  N30      1.0000 0.76870  0.53631  0.53356  Biso   1.000  N
  N31      1.0000 0.26870  0.96369  0.03356  Biso   1.000  N
  N32      1.0000 0.23130  0.46369  0.46644  Biso   1.000  N
  N33      1.0000 0.57520  0.01953  0.83603  Biso   1.000  N
  N34      1.0000 0.92480  0.51953  0.66397  Biso   1.000  N
  N35      1.0000 0.42480  0.98047  0.16397  Biso   1.000  N
  N36      1.0000 0.07520  0.48047  0.33603  Biso   1.000  N
  N37      1.0000 0.61470  0.16675  0.13534  Biso   1.000  N
  N38      1.0000 0.88530  0.66675  0.36466  Biso   1.000  N
  N39      1.0000 0.38530  0.83325  0.86466  Biso   1.000  N
  N40      1.0000 0.11470  0.33325  0.63534  Biso   1.000  N
  N41      1.0000 0.62340  0.23992  0.21340  Biso   1.000  N
  N42      1.0000 0.87660  0.73992  0.28660  Biso   1.000  N
  N43      1.0000 0.37660  0.76008  0.78660  Biso   1.000  N
  N44      1.0000 0.12340  0.26008  0.71340  Biso   1.000  N
  N45      1.0000 0.76810  0.22419  0.07530  Biso   1.000  N
  N46      1.0000 0.73190  0.72419  0.42470  Biso   1.000  N
  N47      1.0000 0.23190  0.77581  0.92470  Biso   1.000  N
  N48      1.0000 0.26810  0.27581  0.57530  Biso   1.000  N
  C1       1.0000 0.87520  0.16889  0.38320  Biso   1.000  C
  C2       1.0000 0.62480  0.66889  0.11680  Biso   1.000  C
  C3       1.0000 0.12480  0.83111  0.61680  Biso   1.000  C
  C4       1.0000 0.37520  0.33111  0.88320  Biso   1.000  C
  C5       1.0000 0.72570  0.22003  0.48860  Biso   1.000  C
  C6       1.0000 0.77430  0.72003  0.01140  Biso   1.000  C
  C7       1.0000 0.27430  0.77997  0.51140  Biso   1.000  C
  C8       1.0000 0.22570  0.27997  0.98860  Biso   1.000  C
  H1       1.0000 0.66880  0.23090  0.42850  Biso   1.000  H
  H2       1.0000 0.83120  0.73090  0.07150  Biso   1.000  H
  H3       1.0000 0.33120  0.76910  0.57150  Biso   1.000  H
  H4       1.0000 0.16880  0.26910  0.92850  Biso   1.000  H
  H5       1.0000 0.73890  0.24440  0.53920  Biso   1.000  H
  H6       1.0000 0.76110  0.74440  0.96080  Biso   1.000  H
  H7       1.0000 0.26110  0.75560  0.46080  Biso   1.000  H
  H8       1.0000 0.23890  0.25560  0.03920  Biso   1.000  H
  H9       1.0000 0.67410  0.19520  0.52220  Biso   1.000  H
  H10      1.0000 0.82590  0.69520  0.97780  Biso   1.000  H
  H11      1.0000 0.32590  0.80480  0.47780  Biso   1.000  H
  H12      1.0000 0.17410  0.30480  0.02220  Biso   1.000  H
  C9       1.0000 0.96470  0.23970  0.41450  Biso   1.000  C
  C10      1.0000 0.53530  0.73970  0.08550  Biso   1.000  C
  C11      1.0000 0.03530  0.76030  0.58550  Biso   1.000  C
  C12      1.0000 0.46470  0.26030  0.91450  Biso   1.000  C
  H13      1.0000 0.00800  0.25680  0.47330  Biso   1.000  H
  H14      1.0000 0.49200  0.75680  0.02670  Biso   1.000  H
  H15      1.0000 0.99200  0.74320  0.52670  Biso   1.000  H
  H16      1.0000 0.50800  0.24320  0.97330  Biso   1.000  H
  H17      1.0000 0.91300  0.26060  0.36690  Biso   1.000  H
  H18      1.0000 0.58700  0.76060  0.13310  Biso   1.000  H
  H19      1.0000 0.08700  0.73940  0.63310  Biso   1.000  H
  H20      1.0000 0.41300  0.23940  0.86690  Biso   1.000  H
  C13      1.0000 0.07820  0.21355  0.35690  Biso   1.000  C
  C14      1.0000 0.42180  0.71355  0.14310  Biso   1.000  C
  C15      1.0000 0.92180  0.78645  0.64310  Biso   1.000  C
  C16      1.0000 0.57820  0.28645  0.85690  Biso   1.000  C
  H21      1.0000 0.11760  0.23090  0.29720  Biso   1.000  H
  H22      1.0000 0.38240  0.73090  0.20280  Biso   1.000  H
  H23      1.0000 0.88240  0.76910  0.70280  Biso   1.000  H
  H24      1.0000 0.61760  0.26910  0.79720  Biso   1.000  H
  H25      1.0000 0.15910  0.20480  0.40420  Biso   1.000  H
  H26      1.0000 0.34090  0.70480  0.09580  Biso   1.000  H
  H27      1.0000 0.84090  0.79520  0.59580  Biso   1.000  H
  H28      1.0000 0.65910  0.29520  0.90420  Biso   1.000  H
  C17      1.0000 0.08530  0.13551  0.28910  Biso   1.000  C
  C18      1.0000 0.41470  0.63551  0.21090  Biso   1.000  C
  C19      1.0000 0.91470  0.86449  0.71090  Biso   1.000  C
  C20      1.0000 0.58530  0.36449  0.78910  Biso   1.000  C
  H29      1.0000 0.04750  0.10840  0.32250  Biso   1.000  H
  H30      1.0000 0.45250  0.60840  0.17750  Biso   1.000  H
  H31      1.0000 0.95250  0.89160  0.67750  Biso   1.000  H
  H32      1.0000 0.54750  0.39160  0.82250  Biso   1.000  H
  H33      1.0000 0.18630  0.14030  0.31140  Biso   1.000  H
  H34      1.0000 0.31370  0.64030  0.18860  Biso   1.000  H
  H35      1.0000 0.81370  0.85970  0.68860  Biso   1.000  H
  H36      1.0000 0.68630  0.35970  0.81140  Biso   1.000  H
  H37      1.0000 0.08140  0.13210  0.21270  Biso   1.000  H
  H38      1.0000 0.41860  0.63210  0.28730  Biso   1.000  H
  H39      1.0000 0.91860  0.86790  0.78730  Biso   1.000  H
  H40      1.0000 0.58140  0.36790  0.71270  Biso   1.000  H
  C21      1.0000 0.77100  0.10770  0.28850  Biso   1.000  C
  C22      1.0000 0.72900  0.60770  0.21150  Biso   1.000  C
  C23      1.0000 0.22900  0.89230  0.71150  Biso   1.000  C
  C24      1.0000 0.27100  0.39230  0.78850  Biso   1.000  C
  H41      1.0000 0.81270  0.07810  0.30650  Biso   1.000  H
  H42      1.0000 0.68730  0.57810  0.19350  Biso   1.000  H
  H43      1.0000 0.18730  0.92190  0.69350  Biso   1.000  H
  H44      1.0000 0.31270  0.42190  0.80650  Biso   1.000  H
  H45      1.0000 0.82940  0.12060  0.23090  Biso   1.000  H
  H46      1.0000 0.67060  0.62060  0.26910  Biso   1.000  H
  H47      1.0000 0.17060  0.87940  0.76910  Biso   1.000  H
  H48      1.0000 0.32940  0.37940  0.73090  Biso   1.000  H
  C25      1.0000 0.85590  0.06602  0.64150  Biso   1.000  C
  C26      1.0000 0.64410  0.56602  0.85850  Biso   1.000  C
  C27      1.0000 0.14410  0.93398  0.35850  Biso   1.000  C
  C28      1.0000 0.35590  0.43398  0.14150  Biso   1.000  C
  C29      1.0000 0.08280  0.09398  0.72560  Biso   1.000  C
  C30      1.0000 0.41720  0.59398  0.77440  Biso   1.000  C
  C31      1.0000 0.91720  0.90602  0.27440  Biso   1.000  C
  C32      1.0000 0.58280  0.40602  0.22560  Biso   1.000  C
  H49      1.0000 0.05380  0.12110  0.68750  Biso   1.000  H
  H50      1.0000 0.44620  0.62110  0.81250  Biso   1.000  H
  H51      1.0000 0.94620  0.87890  0.31250  Biso   1.000  H
  H52      1.0000 0.55380  0.37890  0.18750  Biso   1.000  H
  H53      1.0000 0.17780  0.08390  0.70050  Biso   1.000  H
  H54      1.0000 0.32220  0.58390  0.79950  Biso   1.000  H
  H55      1.0000 0.82220  0.91610  0.29950  Biso   1.000  H
  H56      1.0000 0.67780  0.41610  0.20050  Biso   1.000  H
  H57      1.0000 0.08910  0.10060  0.80080  Biso   1.000  H
  H58      1.0000 0.41090  0.60060  0.69920  Biso   1.000  H
  H59      1.0000 0.91090  0.89940  0.19920  Biso   1.000  H
  H60      1.0000 0.58910  0.39940  0.30080  Biso   1.000  H
  C33      1.0000 0.03450  0.01412  0.68400  Biso   1.000  C
  C34      1.0000 0.46550  0.51412  0.81600  Biso   1.000  C
  C35      1.0000 0.96550  0.98588  0.31600  Biso   1.000  C
  C36      1.0000 0.53450  0.48588  0.18400  Biso   1.000  C
  H61      1.0000 0.06430  0.99840  0.74900  Biso   1.000  H
  H62      1.0000 0.43570  0.49840  0.75100  Biso   1.000  H
  H63      1.0000 0.93570  0.00160  0.25100  Biso   1.000  H
  H64      1.0000 0.56430  0.50160  0.24900  Biso   1.000  H
  H65      1.0000 0.11930  0.01650  0.63680  Biso   1.000  H
  H66      1.0000 0.38070  0.51650  0.86320  Biso   1.000  H
  H67      1.0000 0.88070  0.98350  0.36320  Biso   1.000  H
  H68      1.0000 0.61930  0.48350  0.13680  Biso   1.000  H
  C37      1.0000 0.90920  0.99042  0.63060  Biso   1.000  C
  C38      1.0000 0.59080  0.49042  0.86940  Biso   1.000  C
  C39      1.0000 0.09080  0.00958  0.36940  Biso   1.000  C
  C40      1.0000 0.40920  0.50958  0.13060  Biso   1.000  C
  H69      1.0000 0.94390  0.96890  0.57730  Biso   1.000  H
  H70      1.0000 0.55610  0.46890  0.92270  Biso   1.000  H
  H71      1.0000 0.05610  0.03110  0.42270  Biso   1.000  H
  H72      1.0000 0.44390  0.53110  0.07730  Biso   1.000  H
  H73      1.0000 0.84740  0.97450  0.68200  Biso   1.000  H
  H74      1.0000 0.65260  0.47450  0.81800  Biso   1.000  H
  H75      1.0000 0.15260  0.02550  0.31800  Biso   1.000  H
  H76      1.0000 0.34740  0.52550  0.18200  Biso   1.000  H
  C41      1.0000 0.68610  0.01822  0.54270  Biso   1.000  C
  C42      1.0000 0.81390  0.51822  0.95730  Biso   1.000  C
  C43      1.0000 0.31390  0.98178  0.45730  Biso   1.000  C
  C44      1.0000 0.18610  0.48178  0.04270  Biso   1.000  C
  H77      1.0000 0.61630  0.02020  0.60030  Biso   1.000  H
  H78      1.0000 0.88370  0.52020  0.89970  Biso   1.000  H
  H79      1.0000 0.38370  0.97980  0.39970  Biso   1.000  H
  H80      1.0000 0.11630  0.47980  0.10030  Biso   1.000  H
  H81      1.0000 0.68410  0.98800  0.51300  Biso   1.000  H
  H82      1.0000 0.81590  0.48800  0.98700  Biso   1.000  H
  H83      1.0000 0.31590  0.01200  0.48700  Biso   1.000  H
  H84      1.0000 0.18410  0.51200  0.01300  Biso   1.000  H
  H85      1.0000 0.66010  0.04000  0.48820  Biso   1.000  H
  H86      1.0000 0.83990  0.54000  0.01180  Biso   1.000  H
  H87      1.0000 0.33990  0.96000  0.51180  Biso   1.000  H
  H88      1.0000 0.16010  0.46000  0.98820  Biso   1.000  H
  C45      1.0000 0.78510  0.13610  0.71610  Biso   1.000  C
  C46      1.0000 0.71490  0.63610  0.78390  Biso   1.000  C
  C47      1.0000 0.21490  0.86390  0.28390  Biso   1.000  C
  C48      1.0000 0.28510  0.36390  0.21610  Biso   1.000  C
  H89      1.0000 0.84210  0.16170  0.68890  Biso   1.000  H
  H90      1.0000 0.65790  0.66170  0.81110  Biso   1.000  H
  H91      1.0000 0.15790  0.83830  0.31110  Biso   1.000  H
  H92      1.0000 0.34210  0.33830  0.18890  Biso   1.000  H
  H93      1.0000 0.83650  0.12400  0.77850  Biso   1.000  H
  H94      1.0000 0.66350  0.62400  0.72150  Biso   1.000  H
  H95      1.0000 0.16350  0.87600  0.22150  Biso   1.000  H
  H96      1.0000 0.33650  0.37600  0.27850  Biso   1.000  H
  C49      1.0000 0.63470  0.15203  0.74740  Biso   1.000  C
  C50      1.0000 0.86530  0.65203  0.75260  Biso   1.000  C
  C51      1.0000 0.36530  0.84797  0.25260  Biso   1.000  C
  C52      1.0000 0.13470  0.34797  0.24740  Biso   1.000  C
  H97      1.0000 0.58620  0.16570  0.68570  Biso   1.000  H
  H98      1.0000 0.91380  0.66570  0.81430  Biso   1.000  H
  H99      1.0000 0.41380  0.83430  0.31430  Biso   1.000  H
  H100     1.0000 0.08620  0.33430  0.18570  Biso   1.000  H
  H101     1.0000 0.64420  0.17540  0.80220  Biso   1.000  H
  H102     1.0000 0.85580  0.67540  0.69780  Biso   1.000  H
  H103     1.0000 0.35580  0.82460  0.19780  Biso   1.000  H
  H104     1.0000 0.14420  0.32460  0.30220  Biso   1.000  H
  C53      1.0000 0.54020  0.11396  0.78880  Biso   1.000  C
  C54      1.0000 0.95980  0.61396  0.71120  Biso   1.000  C
  C55      1.0000 0.45980  0.88604  0.21120  Biso   1.000  C
  C56      1.0000 0.04020  0.38604  0.28880  Biso   1.000  C
  H105     1.0000 0.44070  0.12510  0.80290  Biso   1.000  H
  H106     1.0000 0.05930  0.62510  0.69710  Biso   1.000  H
  H107     1.0000 0.55930  0.87490  0.19710  Biso   1.000  H
  H108     1.0000 0.94070  0.37490  0.30290  Biso   1.000  H
  H109     1.0000 0.53360  0.08980  0.73590  Biso   1.000  H
  H110     1.0000 0.96640  0.58980  0.76410  Biso   1.000  H
  H111     1.0000 0.46640  0.91020  0.26410  Biso   1.000  H
  H112     1.0000 0.03360  0.41020  0.23590  Biso   1.000  H
  C57      1.0000 0.63410  0.05403  0.89440  Biso   1.000  C
  C58      1.0000 0.86590  0.55403  0.60560  Biso   1.000  C
  C59      1.0000 0.36590  0.94597  0.10560  Biso   1.000  C
  C60      1.0000 0.13410  0.44597  0.39440  Biso   1.000  C
  C61      1.0000 0.85360  0.06331  0.00390  Biso   1.000  C
  C62      1.0000 0.64640  0.56331  0.49610  Biso   1.000  C
  C63      1.0000 0.14640  0.93669  0.99610  Biso   1.000  C
  C64      1.0000 0.35360  0.43669  0.50390  Biso   1.000  C
  H113     1.0000 0.92090  0.06890  0.94590  Biso   1.000  H
  H114     1.0000 0.57910  0.56890  0.55410  Biso   1.000  H
  H115     1.0000 0.07910  0.93110  0.05410  Biso   1.000  H
  H116     1.0000 0.42090  0.43110  0.44590  Biso   1.000  H
  H117     1.0000 0.90470  0.04720  0.06010  Biso   1.000  H
  H118     1.0000 0.59530  0.54720  0.43990  Biso   1.000  H
  H119     1.0000 0.09530  0.95280  0.93990  Biso   1.000  H
  H120     1.0000 0.40470  0.45280  0.56010  Biso   1.000  H
  H121     1.0000 0.81740  0.09190  0.03090  Biso   1.000  H
  H122     1.0000 0.68260  0.59190  0.46910  Biso   1.000  H
  H123     1.0000 0.18260  0.90810  0.96910  Biso   1.000  H
  H124     1.0000 0.31740  0.40810  0.53090  Biso   1.000  H
  C65      1.0000 0.76740  0.99061  0.93410  Biso   1.000  C
  C66      1.0000 0.73260  0.49061  0.56590  Biso   1.000  C
  C67      1.0000 0.23260  0.00939  0.06590  Biso   1.000  C
  C68      1.0000 0.26740  0.50939  0.43410  Biso   1.000  C
  H125     1.0000 0.78550  0.97110  0.99560  Biso   1.000  H
  H126     1.0000 0.71450  0.47110  0.50440  Biso   1.000  H
  H127     1.0000 0.21450  0.02890  0.00440  Biso   1.000  H
  H128     1.0000 0.28550  0.52890  0.49560  Biso   1.000  H
  H129     1.0000 0.85370  0.99010  0.88790  Biso   1.000  H
  H130     1.0000 0.64630  0.49010  0.61210  Biso   1.000  H
  H131     1.0000 0.14630  0.00990  0.11210  Biso   1.000  H
  H132     1.0000 0.35370  0.50990  0.38790  Biso   1.000  H
  C69      1.0000 0.63170  0.97660  0.87540  Biso   1.000  C
  C70      1.0000 0.86830  0.47660  0.62460  Biso   1.000  C
  C71      1.0000 0.36830  0.02340  0.12460  Biso   1.000  C
  C72      1.0000 0.13170  0.52340  0.37540  Biso   1.000  C
  H133     1.0000 0.65500  0.95600  0.81700  Biso   1.000  H
  H134     1.0000 0.84500  0.45600  0.68300  Biso   1.000  H
  H135     1.0000 0.34500  0.04400  0.18300  Biso   1.000  H
  H136     1.0000 0.15500  0.54400  0.31700  Biso   1.000  H
  H137     1.0000 0.56110  0.96190  0.92280  Biso   1.000  H
  H138     1.0000 0.93890  0.46190  0.57720  Biso   1.000  H
  H139     1.0000 0.43890  0.03810  0.07720  Biso   1.000  H
  H140     1.0000 0.06110  0.53810  0.42280  Biso   1.000  H
  C73      1.0000 0.42130  0.02058  0.80500  Biso   1.000  C
  C74      1.0000 0.07870  0.52058  0.69500  Biso   1.000  C
  C75      1.0000 0.57870  0.97942  0.19500  Biso   1.000  C
  C76      1.0000 0.92130  0.47942  0.30500  Biso   1.000  C
  H141     1.0000 0.37730  0.04870  0.82890  Biso   1.000  H
  H142     1.0000 0.12270  0.54870  0.67110  Biso   1.000  H
  H143     1.0000 0.62270  0.95130  0.17110  Biso   1.000  H
  H144     1.0000 0.87730  0.45130  0.32890  Biso   1.000  H
  H145     1.0000 0.37040  0.99520  0.83700  Biso   1.000  H
  H146     1.0000 0.12960  0.49520  0.66300  Biso   1.000  H
  H147     1.0000 0.62960  0.00480  0.16300  Biso   1.000  H
  H148     1.0000 0.87040  0.50480  0.33700  Biso   1.000  H
  H149     1.0000 0.41340  0.01860  0.72850  Biso   1.000  H
  H150     1.0000 0.08660  0.51860  0.77150  Biso   1.000  H
  H151     1.0000 0.58660  0.98140  0.27150  Biso   1.000  H
  H152     1.0000 0.91340  0.48140  0.22850  Biso   1.000  H
  C77      1.0000 0.66420  0.20739  0.14180  Biso   1.000  C
  C78      1.0000 0.83580  0.70739  0.35820  Biso   1.000  C
  C79      1.0000 0.33580  0.79261  0.85820  Biso   1.000  C
  C80      1.0000 0.16420  0.29261  0.64180  Biso   1.000  C
  C81      1.0000 0.46980  0.24386  0.24350  Biso   1.000  C
  C82      1.0000 0.03020  0.74386  0.25650  Biso   1.000  C
  C83      1.0000 0.53020  0.75614  0.75650  Biso   1.000  C
  C84      1.0000 0.96980  0.25614  0.74350  Biso   1.000  C
  H153     1.0000 0.40920  0.22710  0.19360  Biso   1.000  H
  H154     1.0000 0.09080  0.72710  0.30640  Biso   1.000  H
  H155     1.0000 0.59080  0.77290  0.80640  Biso   1.000  H
  H156     1.0000 0.90920  0.27290  0.69360  Biso   1.000  H
  H157     1.0000 0.44110  0.27550  0.24290  Biso   1.000  H
  H158     1.0000 0.05890  0.77550  0.25710  Biso   1.000  H
  H159     1.0000 0.55890  0.72450  0.75710  Biso   1.000  H
  H160     1.0000 0.94110  0.22450  0.74290  Biso   1.000  H
  H161     1.0000 0.45670  0.23160  0.31420  Biso   1.000  H
  H162     1.0000 0.04330  0.73160  0.18580  Biso   1.000  H
  H163     1.0000 0.54330  0.76840  0.68580  Biso   1.000  H
  H164     1.0000 0.95670  0.26840  0.81420  Biso   1.000  H
  C85      1.0000 0.69880  0.28149  0.18530  Biso   1.000  C
  C86      1.0000 0.80120  0.78149  0.31470  Biso   1.000  C
  C87      1.0000 0.30120  0.71851  0.81470  Biso   1.000  C
  C88      1.0000 0.19880  0.21851  0.68530  Biso   1.000  C
  H165     1.0000 0.73100  0.29790  0.24870  Biso   1.000  H
  H166     1.0000 0.76900  0.79790  0.25130  Biso   1.000  H
  H167     1.0000 0.26900  0.70210  0.75130  Biso   1.000  H
  H168     1.0000 0.23100  0.20210  0.74870  Biso   1.000  H
  H169     1.0000 0.63530  0.30120  0.14260  Biso   1.000  H
  H170     1.0000 0.86470  0.80120  0.35740  Biso   1.000  H
  H171     1.0000 0.36470  0.69880  0.85740  Biso   1.000  H
  H172     1.0000 0.13530  0.19880  0.64260  Biso   1.000  H
  C89      1.0000 0.82650  0.26535  0.12290  Biso   1.000  C
  C90      1.0000 0.67350  0.76535  0.37710  Biso   1.000  C
  C91      1.0000 0.17350  0.73465  0.87710  Biso   1.000  C
  C92      1.0000 0.32650  0.23465  0.62290  Biso   1.000  C
  H173     1.0000 0.85490  0.28740  0.06880  Biso   1.000  H
  H174     1.0000 0.64510  0.78740  0.43120  Biso   1.000  H
  H175     1.0000 0.14510  0.71260  0.93120  Biso   1.000  H
  H176     1.0000 0.35490  0.21260  0.56880  Biso   1.000  H
  H177     1.0000 0.91120  0.25890  0.16870  Biso   1.000  H
  H178     1.0000 0.58880  0.75890  0.33130  Biso   1.000  H
  H179     1.0000 0.08880  0.74110  0.83130  Biso   1.000  H
  H180     1.0000 0.41120  0.24110  0.66870  Biso   1.000  H
  C93      1.0000 0.87240  0.19465  0.02520  Biso   1.000  C
  C94      1.0000 0.62760  0.69465  0.47480  Biso   1.000  C
  C95      1.0000 0.12760  0.80535  0.97480  Biso   1.000  C
  C96      1.0000 0.37240  0.30535  0.52520  Biso   1.000  C
  H181     1.0000 0.92390  0.17720  0.07890  Biso   1.000  H
  H182     1.0000 0.57610  0.67720  0.42110  Biso   1.000  H
  H183     1.0000 0.07610  0.82280  0.92110  Biso   1.000  H
  H184     1.0000 0.42390  0.32280  0.57890  Biso   1.000  H
  H185     1.0000 0.94260  0.21250  0.98550  Biso   1.000  H
  H186     1.0000 0.55740  0.71250  0.51450  Biso   1.000  H
  H187     1.0000 0.05740  0.78750  0.01450  Biso   1.000  H
  H188     1.0000 0.44260  0.28750  0.48550  Biso   1.000  H
  H189     1.0000 0.82120  0.17430  0.97750  Biso   1.000  H
  H190     1.0000 0.67880  0.67430  0.52250  Biso   1.000  H
  H191     1.0000 0.17880  0.82570  0.02250  Biso   1.000  H
  H192     1.0000 0.32120  0.32570  0.47750  Biso   1.000  H
  C97      1.0000 0.54230  0.14627  0.22710  Biso   1.000  C
  C98      1.0000 0.95770  0.64627  0.27290  Biso   1.000  C
  C99      1.0000 0.45770  0.85373  0.77290  Biso   1.000  C
  C100     1.0000 0.04230  0.35373  0.72710  Biso   1.000  C
  H193     1.0000 0.43800  0.14140  0.21130  Biso   1.000  H
  H194     1.0000 0.06200  0.64140  0.28870  Biso   1.000  H
  H195     1.0000 0.56200  0.85860  0.78870  Biso   1.000  H
  H196     1.0000 0.93800  0.35860  0.71130  Biso   1.000  H
  H197     1.0000 0.54970  0.16660  0.28820  Biso   1.000  H
  H198     1.0000 0.95030  0.66660  0.21180  Biso   1.000  H
  H199     1.0000 0.45030  0.83340  0.71180  Biso   1.000  H
  H200     1.0000 0.04970  0.33340  0.78820  Biso   1.000  H
  C101     1.0000 0.61510  0.10195  0.25230  Biso   1.000  C
  C102     1.0000 0.88490  0.60195  0.24770  Biso   1.000  C
  C103     1.0000 0.38490  0.89805  0.74770  Biso   1.000  C
  C104     1.0000 0.11510  0.39805  0.75230  Biso   1.000  C
  H201     1.0000 0.55930  0.08660  0.30800  Biso   1.000  H
  H202     1.0000 0.94070  0.58660  0.19200  Biso   1.000  H
  H203     1.0000 0.44070  0.91340  0.69200  Biso   1.000  H
  H204     1.0000 0.05930  0.41340  0.80800  Biso   1.000  H
  H205     1.0000 0.61310  0.08270  0.18910  Biso   1.000  H
  H206     1.0000 0.88690  0.58270  0.31090  Biso   1.000  H
  H207     1.0000 0.38690  0.91730  0.81090  Biso   1.000  H
  H208     1.0000 0.11310  0.41730  0.68910  Biso   1.000  H
