data_image0
_cell_length_a       5.823
_cell_length_b       11.085
_cell_length_c       13.897
_cell_angle_alpha    95.233
_cell_angle_beta     99.184
_cell_angle_gamma    100.67

_symmetry_space_group_name_H-M    "P 1"
_symmetry_int_tables_number       1

loop_
  _symmetry_equiv_pos_as_xyz
  'x, y, z'

loop_
  _atom_site_label
  _atom_site_occupancy
  _atom_site_fract_x
  _atom_site_fract_y
  _atom_site_fract_z
  _atom_site_thermal_displace_type
  _atom_site_B_iso_or_equiv
  _atom_site_type_symbol
  Cu1      1.0000 0.51246  0.91595  0.38536  Biso   1.000  Cu
  Cu2      1.0000 0.48754  0.08405  0.61464  Biso   1.000  Cu
  Cu3      1.0000 0.91687  0.75243  0.28637  Biso   1.000  Cu
  Cu4      1.0000 0.08313  0.24757  0.71363  Biso   1.000  Cu
  N1       1.0000 0.57130  0.70630  0.24290  Biso   1.000  N
  N2       1.0000 0.42870  0.29370  0.75710  Biso   1.000  N
  N3       1.0000 0.43260  0.77980  0.27720  Biso   1.000  N
  N4       1.0000 0.56740  0.22020  0.72280  Biso   1.000  N
  N5       1.0000 0.20920  0.73310  0.23600  Biso   1.000  N
  N6       1.0000 0.79080  0.26690  0.76400  Biso   1.000  N
  N7       1.0000 0.19690  0.63040  0.17530  Biso   1.000  N
  N8       1.0000 0.80310  0.36960  0.82470  Biso   1.000  N
  N9       1.0000 0.10000  0.19340  0.50000  Biso   1.000  N
  N10      1.0000 0.90000  0.80660  0.50000  Biso   1.000  N
  N11      1.0000 0.96310  0.18640  0.56900  Biso   1.000  N
  N12      1.0000 0.03690  0.81360  0.43100  Biso   1.000  N
  N13      1.0000 0.75930  0.10910  0.53490  Biso   1.000  N
  N14      1.0000 0.24070  0.89090  0.46510  Biso   1.000  N
  N15      1.0000 0.76020  0.06140  0.44170  Biso   1.000  N
  N16      1.0000 0.23980  0.93860  0.55830  Biso   1.000  N
  C1       1.0000 0.41880  0.61400  0.18200  Biso   1.000  C
  C2       1.0000 0.58120  0.38600  0.81800  Biso   1.000  C
  C3       1.0000 0.46660  0.49800  0.13490  Biso   1.000  C
  C4       1.0000 0.53340  0.50200  0.86510  Biso   1.000  C
  C5       1.0000 0.67680  0.45730  0.16080  Biso   1.000  C
  C6       1.0000 0.32320  0.54270  0.83920  Biso   1.000  C
  H1       1.0000 0.80520  0.50940  0.20220  Biso   1.000  H
  H2       1.0000 0.19480  0.49060  0.79780  Biso   1.000  H
  C7       1.0000 0.69640  0.33820  0.12490  Biso   1.000  C
  C8       1.0000 0.30360  0.66180  0.87510  Biso   1.000  C
  H3       1.0000 0.83900  0.31230  0.14160  Biso   1.000  H
  H4       1.0000 0.16100  0.68770  0.85840  Biso   1.000  H
  C9       1.0000 0.50490  0.25830  0.06460  Biso   1.000  C
  C10      1.0000 0.49510  0.74170  0.93540  Biso   1.000  C
  C11      1.0000 0.30100  0.30190  0.03610  Biso   1.000  C
  C12      1.0000 0.69900  0.69810  0.96390  Biso   1.000  C
  H5       1.0000 0.17400  0.25090  0.99320  Biso   1.000  H
  H6       1.0000 0.82600  0.74910  0.00680  Biso   1.000  H
  C13      1.0000 0.28160  0.42090  0.07030  Biso   1.000  C
  C14      1.0000 0.71840  0.57910  0.92970  Biso   1.000  C
  H7       1.0000 0.14290  0.44870  0.04960  Biso   1.000  H
  H8       1.0000 0.85710  0.55130  0.95040  Biso   1.000  H
  C15      1.0000 0.50840  0.12500  0.03400  Biso   1.000  C
  C16      1.0000 0.49160  0.87500  0.96600  Biso   1.000  C
  C17      1.0000 0.62410  0.09330  0.95810  Biso   1.000  C
  C18      1.0000 0.37590  0.90670  0.04190  Biso   1.000  C
  H9       1.0000 0.70880  0.15610  0.93000  Biso   1.000  H
  H10      1.0000 0.29120  0.84390  0.07000  Biso   1.000  H
  C19      1.0000 0.38260  0.02980  0.07740  Biso   1.000  C
  C20      1.0000 0.61740  0.97020  0.92260  Biso   1.000  C
  C21      1.0000 0.26650  0.05630  0.16340  Biso   1.000  C
  C22      1.0000 0.73350  0.94370  0.83660  Biso   1.000  C
  C23      1.0000 0.03210  0.00030  0.16450  Biso   1.000  C
  C24      1.0000 0.96790  0.99970  0.83550  Biso   1.000  C
  H11      1.0000 0.94270  0.94940  0.10910  Biso   1.000  H
  H12      1.0000 0.05730  0.05060  0.89090  Biso   1.000  H
  C25      1.0000 0.93000  0.01940  0.24690  Biso   1.000  C
  C26      1.0000 0.07000  0.98060  0.75310  Biso   1.000  C
  H13      1.0000 0.77360  0.98090  0.24650  Biso   1.000  H
  H14      1.0000 0.22640  0.01910  0.75350  Biso   1.000  H
  C27      1.0000 0.06150  0.09610  0.33040  Biso   1.000  C
  C28      1.0000 0.93850  0.90390  0.66960  Biso   1.000  C
  C29      1.0000 0.29480  0.15350  0.32940  Biso   1.000  C
  C30      1.0000 0.70520  0.84650  0.67060  Biso   1.000  C
  H15      1.0000 0.38380  0.20500  0.38450  Biso   1.000  H
  H16      1.0000 0.61620  0.79500  0.61550  Biso   1.000  H
  C31      1.0000 0.39540  0.13440  0.24650  Biso   1.000  C
  C32      1.0000 0.60460  0.86560  0.75350  Biso   1.000  C
  H17      1.0000 0.55070  0.17420  0.24650  Biso   1.000  H
  H18      1.0000 0.44930  0.82580  0.75350  Biso   1.000  H
  C33      1.0000 0.97070  0.11670  0.42220  Biso   1.000  C
  C34      1.0000 0.02930  0.88330  0.57780  Biso   1.000  C
