data_image0
_cell_length_a       7.8626
_cell_length_b       19.581
_cell_length_c       17.1092
_cell_angle_alpha    90
_cell_angle_beta     93.966
_cell_angle_gamma    90

_symmetry_space_group_name_H-M    "P 1"
_symmetry_int_tables_number       1

loop_
  _symmetry_equiv_pos_as_xyz
  'x, y, z'

loop_
  _atom_site_label
  _atom_site_occupancy
  _atom_site_fract_x
  _atom_site_fract_y
  _atom_site_fract_z
  _atom_site_thermal_displace_type
  _atom_site_B_iso_or_equiv
  _atom_site_type_symbol
  I1       1.0000 0.79591  0.06731  0.04455  Biso   1.000  I
  I2       1.0000 0.20409  0.56731  0.45545  Biso   1.000  I
  I3       1.0000 0.20409  0.93269  0.95545  Biso   1.000  I
  I4       1.0000 0.79591  0.43269  0.54455  Biso   1.000  I
  Cu1      1.0000 0.87720  0.97210  0.94537  Biso   1.000  Cu
  Cu2      1.0000 0.12280  0.47210  0.55463  Biso   1.000  Cu
  Cu3      1.0000 0.12280  0.02790  0.05463  Biso   1.000  Cu
  Cu4      1.0000 0.87720  0.52790  0.44537  Biso   1.000  Cu
  N1       1.0000 0.80420  0.01086  0.83307  Biso   1.000  N
  N2       1.0000 0.19580  0.51086  0.66693  Biso   1.000  N
  N3       1.0000 0.19580  0.98914  0.16693  Biso   1.000  N
  N4       1.0000 0.80420  0.48914  0.33307  Biso   1.000  N
  C1       1.0000 0.72530  0.07060  0.82650  Biso   1.000  C
  C2       1.0000 0.27470  0.57060  0.67350  Biso   1.000  C
  C3       1.0000 0.27470  0.92940  0.17350  Biso   1.000  C
  C4       1.0000 0.72530  0.42940  0.32650  Biso   1.000  C
  C5       1.0000 0.83510  0.97717  0.76487  Biso   1.000  C
  C6       1.0000 0.16490  0.47717  0.73513  Biso   1.000  C
  C7       1.0000 0.16490  0.02283  0.23513  Biso   1.000  C
  C8       1.0000 0.83510  0.52283  0.26487  Biso   1.000  C
  H1       1.0000 0.70400  0.09420  0.87340  Biso   1.000  H
  H2       1.0000 0.29600  0.59420  0.62660  Biso   1.000  H
  H3       1.0000 0.29600  0.90580  0.12660  Biso   1.000  H
  H4       1.0000 0.70400  0.40580  0.37340  Biso   1.000  H
  C9       1.0000 0.67110  0.10122  0.75520  Biso   1.000  C
  C10      1.0000 0.32890  0.60122  0.74480  Biso   1.000  C
  C11      1.0000 0.32890  0.89878  0.24480  Biso   1.000  C
  C12      1.0000 0.67110  0.39878  0.25520  Biso   1.000  C
  C13      1.0000 0.78630  0.00495  0.68958  Biso   1.000  C
  C14      1.0000 0.21370  0.50495  0.81042  Biso   1.000  C
  C15      1.0000 0.21370  0.99505  0.31042  Biso   1.000  C
  C16      1.0000 0.78630  0.49505  0.18958  Biso   1.000  C
  C17      1.0000 0.91620  0.91300  0.77010  Biso   1.000  C
  C18      1.0000 0.08380  0.41300  0.72990  Biso   1.000  C
  C19      1.0000 0.08380  0.08700  0.22990  Biso   1.000  C
  C20      1.0000 0.91620  0.58700  0.27010  Biso   1.000  C
  H5       1.0000 0.61500  0.14420  0.75420  Biso   1.000  H
  H6       1.0000 0.38500  0.64420  0.74580  Biso   1.000  H
  H7       1.0000 0.38500  0.85580  0.24580  Biso   1.000  H
  H8       1.0000 0.61500  0.35580  0.25420  Biso   1.000  H
  C21      1.0000 0.70020  0.06827  0.68710  Biso   1.000  C
  C22      1.0000 0.29980  0.56827  0.81290  Biso   1.000  C
  C23      1.0000 0.29980  0.93173  0.31290  Biso   1.000  C
  C24      1.0000 0.70020  0.43173  0.18710  Biso   1.000  C
  C25      1.0000 0.82740  0.96740  0.62228  Biso   1.000  C
  C26      1.0000 0.17260  0.46740  0.87772  Biso   1.000  C
  C27      1.0000 0.17260  0.03260  0.37772  Biso   1.000  C
  C28      1.0000 0.82740  0.53260  0.12228  Biso   1.000  C
  C29      1.0000 0.95130  0.87875  0.70420  Biso   1.000  C
  C30      1.0000 0.04870  0.37875  0.79580  Biso   1.000  C
  C31      1.0000 0.04870  0.12125  0.29580  Biso   1.000  C
  C32      1.0000 0.95130  0.62125  0.20420  Biso   1.000  C
  H9       1.0000 0.94640  0.89360  0.82000  Biso   1.000  H
  H10      1.0000 0.05360  0.39360  0.68000  Biso   1.000  H
  H11      1.0000 0.05360  0.10640  0.18000  Biso   1.000  H
  H12      1.0000 0.94640  0.60640  0.32000  Biso   1.000  H
  H13      1.0000 0.66270  0.08790  0.63810  Biso   1.000  H
  H14      1.0000 0.33730  0.58790  0.86190  Biso   1.000  H
  H15      1.0000 0.33730  0.91210  0.36190  Biso   1.000  H
  H16      1.0000 0.66270  0.41210  0.13810  Biso   1.000  H
  N5       1.0000 0.78710  0.99592  0.54719  Biso   1.000  N
  N6       1.0000 0.21290  0.49592  0.95281  Biso   1.000  N
  N7       1.0000 0.21290  0.00408  0.45281  Biso   1.000  N
  N8       1.0000 0.78710  0.50408  0.04719  Biso   1.000  N
  C33      1.0000 0.90920  0.90614  0.62950  Biso   1.000  C
  C34      1.0000 0.09080  0.40614  0.87050  Biso   1.000  C
  C35      1.0000 0.09080  0.09386  0.37050  Biso   1.000  C
  C36      1.0000 0.90920  0.59386  0.12950  Biso   1.000  C
  H17      1.0000 0.00540  0.83540  0.70870  Biso   1.000  H
  H18      1.0000 0.99460  0.33540  0.79130  Biso   1.000  H
  H19      1.0000 0.99460  0.16460  0.29130  Biso   1.000  H
  H20      1.0000 0.00540  0.66460  0.20870  Biso   1.000  H
  H21      1.0000 0.80860  0.03950  0.54040  Biso   1.000  H
  H22      1.0000 0.19140  0.53950  0.95960  Biso   1.000  H
  H23      1.0000 0.19140  0.96050  0.45960  Biso   1.000  H
  H24      1.0000 0.80860  0.46050  0.04040  Biso   1.000  H
  C37      1.0000 0.71730  0.96016  0.48501  Biso   1.000  C
  C38      1.0000 0.28270  0.46016  0.01499  Biso   1.000  C
  C39      1.0000 0.28270  0.03984  0.51499  Biso   1.000  C
  C40      1.0000 0.71730  0.53984  0.98501  Biso   1.000  C
  H25      1.0000 0.93770  0.88200  0.58400  Biso   1.000  H
  H26      1.0000 0.06230  0.38200  0.91600  Biso   1.000  H
  H27      1.0000 0.06230  0.11800  0.41600  Biso   1.000  H
  H28      1.0000 0.93770  0.61800  0.08400  Biso   1.000  H
  O1       1.0000 0.66940  0.90078  0.48879  Biso   1.000  O
  O2       1.0000 0.33060  0.40078  0.01121  Biso   1.000  O
  O3       1.0000 0.33060  0.09922  0.51121  Biso   1.000  O
  O4       1.0000 0.66940  0.59922  0.98879  Biso   1.000  O
  C41      1.0000 0.69670  0.99931  0.40959  Biso   1.000  C
  C42      1.0000 0.30330  0.49931  0.09041  Biso   1.000  C
  C43      1.0000 0.30330  0.00069  0.59041  Biso   1.000  C
  C44      1.0000 0.69670  0.50069  0.90959  Biso   1.000  C
  C45      1.0000 0.73160  0.96633  0.34060  Biso   1.000  C
  C46      1.0000 0.26840  0.46633  0.15940  Biso   1.000  C
  C47      1.0000 0.26840  0.03367  0.65940  Biso   1.000  C
  C48      1.0000 0.73160  0.53367  0.84060  Biso   1.000  C
  C49      1.0000 0.63730  0.06567  0.40753  Biso   1.000  C
  C50      1.0000 0.36270  0.56567  0.09247  Biso   1.000  C
  C51      1.0000 0.36270  0.93433  0.59247  Biso   1.000  C
  C52      1.0000 0.63730  0.43433  0.90753  Biso   1.000  C
  C53      1.0000 0.70970  0.00086  0.26990  Biso   1.000  C
  C54      1.0000 0.29030  0.50086  0.23010  Biso   1.000  C
  C55      1.0000 0.29030  0.99914  0.73010  Biso   1.000  C
  C56      1.0000 0.70970  0.49914  0.76990  Biso   1.000  C
  H29      1.0000 0.77040  0.92040  0.34190  Biso   1.000  H
  H30      1.0000 0.22960  0.42040  0.15810  Biso   1.000  H
  H31      1.0000 0.22960  0.07960  0.65810  Biso   1.000  H
  H32      1.0000 0.77040  0.57960  0.84190  Biso   1.000  H
  H33      1.0000 0.61370  0.08810  0.45480  Biso   1.000  H
  H34      1.0000 0.38630  0.58810  0.04520  Biso   1.000  H
  H35      1.0000 0.38630  0.91190  0.54520  Biso   1.000  H
  H36      1.0000 0.61370  0.41190  0.95480  Biso   1.000  H
  C57      1.0000 0.61190  0.09987  0.33602  Biso   1.000  C
  C58      1.0000 0.38810  0.59987  0.16398  Biso   1.000  C
  C59      1.0000 0.38810  0.90013  0.66398  Biso   1.000  C
  C60      1.0000 0.61190  0.40013  0.83602  Biso   1.000  C
  H37      1.0000 0.73430  0.97850  0.22270  Biso   1.000  H
  H38      1.0000 0.26570  0.47850  0.27730  Biso   1.000  H
  H39      1.0000 0.26570  0.02150  0.77730  Biso   1.000  H
  H40      1.0000 0.73430  0.52150  0.72270  Biso   1.000  H
  C61      1.0000 0.65240  0.06738  0.26760  Biso   1.000  C
  C62      1.0000 0.34760  0.56738  0.23240  Biso   1.000  C
  C63      1.0000 0.34760  0.93262  0.73240  Biso   1.000  C
  C64      1.0000 0.65240  0.43262  0.76760  Biso   1.000  C
  C65      1.0000 0.54370  0.17167  0.33070  Biso   1.000  C
  C66      1.0000 0.45630  0.67167  0.16930  Biso   1.000  C
  C67      1.0000 0.45630  0.82833  0.66930  Biso   1.000  C
  C68      1.0000 0.54370  0.32833  0.83070  Biso   1.000  C
  H41      1.0000 0.64050  0.09110  0.21900  Biso   1.000  H
  H42      1.0000 0.35950  0.59110  0.28100  Biso   1.000  H
  H43      1.0000 0.35950  0.90890  0.78100  Biso   1.000  H
  H44      1.0000 0.64050  0.40890  0.71900  Biso   1.000  H
  N9       1.0000 0.43620  0.18820  0.38625  Biso   1.000  N
  N10      1.0000 0.56380  0.68820  0.11375  Biso   1.000  N
  N11      1.0000 0.56380  0.81180  0.61375  Biso   1.000  N
  N12      1.0000 0.43620  0.31180  0.88625  Biso   1.000  N
  O5       1.0000 0.58610  0.21092  0.28015  Biso   1.000  O
  O6       1.0000 0.41390  0.71092  0.21985  Biso   1.000  O
  O7       1.0000 0.41390  0.78908  0.71985  Biso   1.000  O
  O8       1.0000 0.58610  0.28908  0.78015  Biso   1.000  O
  H45      1.0000 0.41790  0.15770  0.42250  Biso   1.000  H
  H46      1.0000 0.58210  0.65770  0.07750  Biso   1.000  H
  H47      1.0000 0.58210  0.84230  0.57750  Biso   1.000  H
  H48      1.0000 0.41790  0.34230  0.92250  Biso   1.000  H
  C69      1.0000 0.35140  0.25221  0.38910  Biso   1.000  C
  C70      1.0000 0.64860  0.75221  0.11090  Biso   1.000  C
  C71      1.0000 0.64860  0.74779  0.61090  Biso   1.000  C
  C72      1.0000 0.35140  0.24779  0.88910  Biso   1.000  C
  C73      1.0000 0.26440  0.27928  0.32500  Biso   1.000  C
  C74      1.0000 0.73560  0.77928  0.17500  Biso   1.000  C
  C75      1.0000 0.73560  0.72072  0.67500  Biso   1.000  C
  C76      1.0000 0.26440  0.22072  0.82500  Biso   1.000  C
  C77      1.0000 0.35340  0.28592  0.46310  Biso   1.000  C
  C78      1.0000 0.64660  0.78592  0.03690  Biso   1.000  C
  C79      1.0000 0.64660  0.71408  0.53690  Biso   1.000  C
  C80      1.0000 0.35340  0.21408  0.96310  Biso   1.000  C
  H49      1.0000 0.26380  0.25630  0.27610  Biso   1.000  H
  H50      1.0000 0.73620  0.75630  0.22390  Biso   1.000  H
  H51      1.0000 0.73620  0.74370  0.72390  Biso   1.000  H
  H52      1.0000 0.26380  0.24370  0.77610  Biso   1.000  H
  C81      1.0000 0.17510  0.34132  0.33060  Biso   1.000  C
  C82      1.0000 0.82490  0.84132  0.16940  Biso   1.000  C
  C83      1.0000 0.82490  0.65868  0.66940  Biso   1.000  C
  C84      1.0000 0.17510  0.15868  0.83060  Biso   1.000  C
  C85      1.0000 0.26510  0.34889  0.46734  Biso   1.000  C
  C86      1.0000 0.73490  0.84889  0.03266  Biso   1.000  C
  C87      1.0000 0.73490  0.65111  0.53266  Biso   1.000  C
  C88      1.0000 0.26510  0.15111  0.96734  Biso   1.000  C
  C89      1.0000 0.44040  0.26047  0.53180  Biso   1.000  C
  C90      1.0000 0.55960  0.76047  0.96820  Biso   1.000  C
  C91      1.0000 0.55960  0.73953  0.46820  Biso   1.000  C
  C92      1.0000 0.44040  0.23953  0.03180  Biso   1.000  C
  H53      1.0000 0.11460  0.35960  0.28540  Biso   1.000  H
  H54      1.0000 0.88540  0.85960  0.21460  Biso   1.000  H
  H55      1.0000 0.88540  0.64040  0.71460  Biso   1.000  H
  H56      1.0000 0.11460  0.14040  0.78540  Biso   1.000  H
  C93      1.0000 0.17410  0.37560  0.40050  Biso   1.000  C
  C94      1.0000 0.82590  0.87560  0.09950  Biso   1.000  C
  C95      1.0000 0.82590  0.62440  0.59950  Biso   1.000  C
  C96      1.0000 0.17410  0.12440  0.90050  Biso   1.000  C
  N13      1.0000 0.26750  0.38466  0.53673  Biso   1.000  N
  N14      1.0000 0.73250  0.88466  0.96327  Biso   1.000  N
  N15      1.0000 0.73250  0.61534  0.46327  Biso   1.000  N
  N16      1.0000 0.26750  0.11534  0.03673  Biso   1.000  N
  C97      1.0000 0.44570  0.29816  0.59830  Biso   1.000  C
  C98      1.0000 0.55430  0.79816  0.90170  Biso   1.000  C
  C99      1.0000 0.55430  0.70184  0.40170  Biso   1.000  C
  C100     1.0000 0.44570  0.20184  0.09830  Biso   1.000  C
  H57      1.0000 0.49500  0.21720  0.53150  Biso   1.000  H
  H58      1.0000 0.50500  0.71720  0.96850  Biso   1.000  H
  H59      1.0000 0.50500  0.78280  0.46850  Biso   1.000  H
  H60      1.0000 0.49500  0.28280  0.03150  Biso   1.000  H
  H61      1.0000 0.11240  0.41710  0.40380  Biso   1.000  H
  H62      1.0000 0.88760  0.91710  0.09620  Biso   1.000  H
  H63      1.0000 0.88760  0.58290  0.59620  Biso   1.000  H
  H64      1.0000 0.11240  0.08290  0.90380  Biso   1.000  H
  C101     1.0000 0.35800  0.36021  0.59800  Biso   1.000  C
  C102     1.0000 0.64200  0.86021  0.90200  Biso   1.000  C
  C103     1.0000 0.64200  0.63979  0.40200  Biso   1.000  C
  C104     1.0000 0.35800  0.13979  0.09800  Biso   1.000  C
  H65      1.0000 0.50810  0.28260  0.64450  Biso   1.000  H
  H66      1.0000 0.49190  0.78260  0.85550  Biso   1.000  H
  H67      1.0000 0.49190  0.71740  0.35550  Biso   1.000  H
  H68      1.0000 0.50810  0.21740  0.14450  Biso   1.000  H
  H69      1.0000 0.36410  0.38640  0.64480  Biso   1.000  H
  H70      1.0000 0.63590  0.88640  0.85520  Biso   1.000  H
  H71      1.0000 0.63590  0.61360  0.35520  Biso   1.000  H
  H72      1.0000 0.36410  0.11360  0.14480  Biso   1.000  H
  O9       1.0000 0.93810  0.12625  0.54710  Biso   1.000  O
  O10      1.0000 0.06190  0.62625  0.95290  Biso   1.000  O
  O11      1.0000 0.06190  0.87375  0.45290  Biso   1.000  O
  O12      1.0000 0.93810  0.37375  0.04710  Biso   1.000  O
  S1       1.0000 0.85108  0.19293  0.55461  Biso   1.000  S
  S2       1.0000 0.14892  0.69293  0.94539  Biso   1.000  S
  S3       1.0000 0.14892  0.80707  0.44539  Biso   1.000  S
  S4       1.0000 0.85108  0.30707  0.05461  Biso   1.000  S
  C105     1.0000 0.88850  0.24200  0.46970  Biso   1.000  C
  C106     1.0000 0.11150  0.74200  0.03030  Biso   1.000  C
  C107     1.0000 0.11150  0.75800  0.53030  Biso   1.000  C
  C108     1.0000 0.88850  0.25800  0.96970  Biso   1.000  C
  H73      1.0000 0.82620  0.22170  0.42380  Biso   1.000  H
  H74      1.0000 0.17380  0.72170  0.07620  Biso   1.000  H
  H75      1.0000 0.17380  0.77830  0.57620  Biso   1.000  H
  H76      1.0000 0.82620  0.27830  0.92380  Biso   1.000  H
  H77      1.0000 0.01080  0.24230  0.46180  Biso   1.000  H
  H78      1.0000 0.98920  0.74230  0.03820  Biso   1.000  H
  H79      1.0000 0.98920  0.75770  0.53820  Biso   1.000  H
  H80      1.0000 0.01080  0.25770  0.96180  Biso   1.000  H
  H81      1.0000 0.84900  0.28890  0.47670  Biso   1.000  H
  H82      1.0000 0.15100  0.78890  0.02330  Biso   1.000  H
  H83      1.0000 0.15100  0.71110  0.52330  Biso   1.000  H
  H84      1.0000 0.84900  0.21110  0.97670  Biso   1.000  H
  C109     1.0000 0.97440  0.24140  0.62390  Biso   1.000  C
  C110     1.0000 0.02560  0.74140  0.87610  Biso   1.000  C
  C111     1.0000 0.02560  0.75860  0.37610  Biso   1.000  C
  C112     1.0000 0.97440  0.25860  0.12390  Biso   1.000  C
  H85      1.0000 0.96860  0.22090  0.67590  Biso   1.000  H
  H86      1.0000 0.03140  0.72090  0.82410  Biso   1.000  H
  H87      1.0000 0.03140  0.77910  0.32410  Biso   1.000  H
  H88      1.0000 0.96860  0.27910  0.17590  Biso   1.000  H
  H89      1.0000 0.93010  0.28820  0.62460  Biso   1.000  H
  H90      1.0000 0.06990  0.78820  0.87540  Biso   1.000  H
  H91      1.0000 0.06990  0.71180  0.37540  Biso   1.000  H
  H92      1.0000 0.93010  0.21180  0.12460  Biso   1.000  H
  H93      1.0000 0.09310  0.24220  0.60980  Biso   1.000  H
  H94      1.0000 0.90690  0.74220  0.89020  Biso   1.000  H
  H95      1.0000 0.90690  0.75780  0.39020  Biso   1.000  H
  H96      1.0000 0.09310  0.25780  0.10980  Biso   1.000  H
  H97      1.0000 0.20980  0.42290  0.54000  Biso   1.000  H
  H98      1.0000 0.79020  0.92290  0.96000  Biso   1.000  H
  H99      1.0000 0.79020  0.57710  0.46000  Biso   1.000  H
  H100     1.0000 0.20980  0.07710  0.04000  Biso   1.000  H
