data_image0
_cell_length_a       3.816
_cell_length_b       6.354
_cell_length_c       11.496
_cell_angle_alpha    90
_cell_angle_beta     95.92
_cell_angle_gamma    90

_symmetry_space_group_name_H-M    "P 1"
_symmetry_int_tables_number       1

loop_
  _symmetry_equiv_pos_as_xyz
  'x, y, z'

loop_
  _atom_site_label
  _atom_site_occupancy
  _atom_site_fract_x
  _atom_site_fract_y
  _atom_site_fract_z
  _atom_site_thermal_displace_type
  _atom_site_B_iso_or_equiv
  _atom_site_type_symbol
  Cu1      1.0000 0.50000  0.29790  0.75000  Biso   1.000  Cu
  Cu2      1.0000 0.50000  0.70210  0.25000  Biso   1.000  Cu
  Cl1      1.0000 0.00000  0.51330  0.75000  Biso   1.000  Cl
  Cl2      1.0000 0.00000  0.48670  0.25000  Biso   1.000  Cl
  N1       1.0000 0.50100  0.11890  0.89760  Biso   1.000  N
  N2       1.0000 0.49900  0.11890  0.60240  Biso   1.000  N
  N3       1.0000 0.49900  0.88110  0.10240  Biso   1.000  N
  N4       1.0000 0.50100  0.88110  0.39760  Biso   1.000  N
  C1       1.0000 0.37140  0.19410  0.99370  Biso   1.000  C
  C2       1.0000 0.62860  0.19410  0.50630  Biso   1.000  C
  C3       1.0000 0.62860  0.80590  0.00630  Biso   1.000  C
  C4       1.0000 0.37140  0.80590  0.49370  Biso   1.000  C
  C5       1.0000 0.62800  0.92210  0.90550  Biso   1.000  C
  C6       1.0000 0.37200  0.92210  0.59450  Biso   1.000  C
  C7       1.0000 0.37200  0.07790  0.09450  Biso   1.000  C
  C8       1.0000 0.62800  0.07790  0.40550  Biso   1.000  C
  H1       1.0000 0.29400  0.33200  0.99500  Biso   1.000  H
  H2       1.0000 0.70600  0.33200  0.50500  Biso   1.000  H
  H3       1.0000 0.70600  0.66800  0.00500  Biso   1.000  H
  H4       1.0000 0.29400  0.66800  0.49500  Biso   1.000  H
  H5       1.0000 0.71800  0.86100  0.83600  Biso   1.000  H
  H6       1.0000 0.28200  0.86100  0.66400  Biso   1.000  H
  H7       1.0000 0.28200  0.13900  0.16400  Biso   1.000  H
  H8       1.0000 0.71800  0.13900  0.33600  Biso   1.000  H
