data_image0
_cell_length_a       3.8073
_cell_length_b       6.3385
_cell_length_c       11.466
_cell_angle_alpha    90
_cell_angle_beta     95.921
_cell_angle_gamma    90

_symmetry_space_group_name_H-M    "P 1"
_symmetry_int_tables_number       1

loop_
  _symmetry_equiv_pos_as_xyz
  'x, y, z'

loop_
  _atom_site_label
  _atom_site_occupancy
  _atom_site_fract_x
  _atom_site_fract_y
  _atom_site_fract_z
  _atom_site_thermal_displace_type
  _atom_site_B_iso_or_equiv
  _atom_site_type_symbol
  Cu1      1.0000 0.30050  0.29782  0.63180  Biso   1.000  Cu
  Cu2      1.0000 0.30050  0.70218  0.13180  Biso   1.000  Cu
  Cl1      1.0000 0.80480  0.51290  0.62800  Biso   1.000  Cl
  Cl2      1.0000 0.80480  0.48710  0.12800  Biso   1.000  Cl
  N1       1.0000 0.29100  0.11780  0.48300  Biso   1.000  N
  N2       1.0000 0.29100  0.88220  0.98300  Biso   1.000  N
  C1       1.0000 0.42000  0.20400  0.38850  Biso   1.000  C
  C2       1.0000 0.42000  0.79600  0.88850  Biso   1.000  C
  H1       1.0000 0.51770  0.33900  0.39050  Biso   1.000  H
  H2       1.0000 0.51770  0.66100  0.89050  Biso   1.000  H
  N3       1.0000 0.29300  0.87580  0.27840  Biso   1.000  N
  N4       1.0000 0.29300  0.12420  0.77840  Biso   1.000  N
  C3       1.0000 0.16500  0.81530  0.37580  Biso   1.000  C
  C4       1.0000 0.16500  0.18470  0.87580  Biso   1.000  C
  H3       1.0000 0.07280  0.67940  0.37530  Biso   1.000  H
  H4       1.0000 0.07280  0.32060  0.87530  Biso   1.000  H
  C5       1.0000 0.15200  0.91840  0.46950  Biso   1.000  C
  C6       1.0000 0.15200  0.08160  0.96950  Biso   1.000  C
  H5       1.0000 0.04640  0.85770  0.53090  Biso   1.000  H
  H6       1.0000 0.04640  0.14230  0.03090  Biso   1.000  H
  C7       1.0000 0.39700  0.06900  0.27940  Biso   1.000  C
  C8       1.0000 0.39700  0.93100  0.77940  Biso   1.000  C
  H7       1.0000 0.45990  0.12840  0.21020  Biso   1.000  H
  H8       1.0000 0.45990  0.87160  0.71020  Biso   1.000  H
