data_image0
_cell_length_a       3.814
_cell_length_b       6.356
_cell_length_c       11.497
_cell_angle_alpha    90
_cell_angle_beta     96.04
_cell_angle_gamma    90

_symmetry_space_group_name_H-M    "P 1"
_symmetry_int_tables_number       1

loop_
  _symmetry_equiv_pos_as_xyz
  'x, y, z'

loop_
  _atom_site_label
  _atom_site_occupancy
  _atom_site_fract_x
  _atom_site_fract_y
  _atom_site_fract_z
  _atom_site_thermal_displace_type
  _atom_site_B_iso_or_equiv
  _atom_site_type_symbol
  Cu1      1.0000 0.00000  0.20200  0.25000  Biso   1.000  Cu
  Cu2      1.0000 0.00000  0.79800  0.75000  Biso   1.000  Cu
  Cl1      1.0000 0.50000  0.98650  0.25000  Biso   1.000  Cl
  Cl2      1.0000 0.50000  0.01350  0.75000  Biso   1.000  Cl
  N1       1.0000 0.00000  0.37940  0.10170  Biso   1.000  N
  N2       1.0000 0.00000  0.37940  0.39830  Biso   1.000  N
  N3       1.0000 0.00000  0.62060  0.89830  Biso   1.000  N
  N4       1.0000 0.00000  0.62060  0.60170  Biso   1.000  N
  C1       1.0000 0.12560  0.30790  0.00000  Biso   1.000  C
  C2       1.0000 0.87440  0.30790  0.50000  Biso   1.000  C
  C3       1.0000 0.87440  0.69210  0.00000  Biso   1.000  C
  C4       1.0000 0.12560  0.69210  0.50000  Biso   1.000  C
  C5       1.0000 0.87360  0.57710  0.09600  Biso   1.000  C
  C6       1.0000 0.12640  0.57710  0.40400  Biso   1.000  C
  C7       1.0000 0.12640  0.42290  0.90400  Biso   1.000  C
  C8       1.0000 0.87360  0.42290  0.59600  Biso   1.000  C
  H1       1.0000 0.21870  0.16760  0.99960  Biso   1.000  H
  H2       1.0000 0.78130  0.16760  0.50040  Biso   1.000  H
  H3       1.0000 0.78130  0.83240  0.00040  Biso   1.000  H
  H4       1.0000 0.21870  0.83240  0.49960  Biso   1.000  H
  H5       1.0000 0.78290  0.63670  0.16350  Biso   1.000  H
  H6       1.0000 0.21710  0.63670  0.33650  Biso   1.000  H
  H7       1.0000 0.21710  0.36330  0.83650  Biso   1.000  H
  H8       1.0000 0.78290  0.36330  0.66350  Biso   1.000  H
