data_image0
_cell_length_a       9.505
_cell_length_b       12.374
_cell_length_c       15.97
_cell_angle_alpha    82.94
_cell_angle_beta     86.61
_cell_angle_gamma    77.98

_symmetry_space_group_name_H-M    "P 1"
_symmetry_int_tables_number       1

loop_
  _symmetry_equiv_pos_as_xyz
  'x, y, z'

loop_
  _atom_site_label
  _atom_site_occupancy
  _atom_site_fract_x
  _atom_site_fract_y
  _atom_site_fract_z
  _atom_site_thermal_displace_type
  _atom_site_B_iso_or_equiv
  _atom_site_type_symbol
  Pt1      1.0000 0.00000  0.00000  0.00000  Biso   1.000  Pt
  Pt2      1.0000 0.50000  0.00000  0.50000  Biso   1.000  Pt
  Cu1      1.0000 0.24560  0.05940  0.84250  Biso   1.000  Cu
  Cu2      1.0000 0.75440  0.94060  0.15750  Biso   1.000  Cu
  Cu3      1.0000 0.38880  0.91650  0.70430  Biso   1.000  Cu
  Cu4      1.0000 0.61120  0.08350  0.29570  Biso   1.000  Cu
  P1       1.0000 0.17090  0.99300  0.09690  Biso   1.000  P
  P2       1.0000 0.82910  0.00700  0.90310  Biso   1.000  P
  P3       1.0000 0.26700  0.09030  0.47680  Biso   1.000  P
  P4       1.0000 0.73300  0.90970  0.52320  Biso   1.000  P
  Cl1      1.0000 0.41380  0.08740  0.73710  Biso   1.000  Cl
  Cl2      1.0000 0.58620  0.91260  0.26290  Biso   1.000  Cl
  Cl3      1.0000 0.29400  0.87130  0.83620  Biso   1.000  Cl
  Cl4      1.0000 0.70600  0.12870  0.16380  Biso   1.000  Cl
  C1       1.0000 0.18430  0.12830  0.12420  Biso   1.000  C
  C2       1.0000 0.81570  0.87170  0.87580  Biso   1.000  C
  C3       1.0000 0.31610  0.16070  0.12720  Biso   1.000  C
  C4       1.0000 0.68390  0.83930  0.87280  Biso   1.000  C
  C5       1.0000 0.32040  0.26320  0.14850  Biso   1.000  C
  C6       1.0000 0.67960  0.73680  0.85150  Biso   1.000  C
  C7       1.0000 0.19240  0.33760  0.17020  Biso   1.000  C
  C8       1.0000 0.80760  0.66240  0.82980  Biso   1.000  C
  C9       1.0000 0.06390  0.30370  0.17010  Biso   1.000  C
  C10      1.0000 0.93610  0.69630  0.82990  Biso   1.000  C
  C11      1.0000 0.06030  0.19890  0.14590  Biso   1.000  C
  C12      1.0000 0.93970  0.80110  0.85410  Biso   1.000  C
  C13      1.0000 0.34970  0.93170  0.06040  Biso   1.000  C
  C14      1.0000 0.65030  0.06830  0.93960  Biso   1.000  C
  C15      1.0000 0.15140  0.91570  0.19680  Biso   1.000  C
  C16      1.0000 0.84860  0.08430  0.80320  Biso   1.000  C
  C17      1.0000 0.09030  0.11350  0.93050  Biso   1.000  C
  C18      1.0000 0.90970  0.88650  0.06950  Biso   1.000  C
  C19      1.0000 0.13880  0.19330  0.89290  Biso   1.000  C
  C20      1.0000 0.86120  0.80670  0.10710  Biso   1.000  C
  C21      1.0000 0.15720  0.31010  0.87120  Biso   1.000  C
  C22      1.0000 0.84280  0.68990  0.12880  Biso   1.000  C
  C23      1.0000 0.31580  0.31620  0.88100  Biso   1.000  C
  C24      1.0000 0.68420  0.68380  0.11900  Biso   1.000  C
  C25      1.0000 0.11560  0.34940  0.77840  Biso   1.000  C
  C26      1.0000 0.88440  0.65060  0.22160  Biso   1.000  C
  C27      1.0000 0.06720  0.38500  0.93090  Biso   1.000  C
  C28      1.0000 0.93280  0.61500  0.06910  Biso   1.000  C
  C29      1.0000 0.23330  0.23920  0.47280  Biso   1.000  C
  C30      1.0000 0.76670  0.76080  0.52720  Biso   1.000  C
  C31      1.0000 0.19860  0.30900  0.39780  Biso   1.000  C
  C32      1.0000 0.80140  0.69100  0.60220  Biso   1.000  C
  C33      1.0000 0.16680  0.42480  0.40100  Biso   1.000  C
  C34      1.0000 0.83320  0.57520  0.59900  Biso   1.000  C
  C35      1.0000 0.17190  0.46800  0.47380  Biso   1.000  C
  C36      1.0000 0.82810  0.53200  0.52620  Biso   1.000  C
  C37      1.0000 0.20780  0.39940  0.54760  Biso   1.000  C
  C38      1.0000 0.79220  0.60060  0.45240  Biso   1.000  C
  C39      1.0000 0.23840  0.28710  0.54600  Biso   1.000  C
  C40      1.0000 0.76160  0.71290  0.45400  Biso   1.000  C
  C41      1.0000 0.20870  0.06190  0.37870  Biso   1.000  C
  C42      1.0000 0.79130  0.93810  0.62130  Biso   1.000  C
  C43      1.0000 0.13230  0.05410  0.55390  Biso   1.000  C
  C44      1.0000 0.86770  0.94590  0.44610  Biso   1.000  C
  C45      1.0000 0.43670  0.88350  0.58290  Biso   1.000  C
  C46      1.0000 0.56330  0.11650  0.41710  Biso   1.000  C
  C47      1.0000 0.39860  0.80400  0.62430  Biso   1.000  C
  C48      1.0000 0.60140  0.19600  0.37570  Biso   1.000  C
  C49      1.0000 0.35530  0.69330  0.63850  Biso   1.000  C
  C50      1.0000 0.64470  0.30670  0.36150  Biso   1.000  C
  C51      1.0000 0.41850  0.62910  0.56440  Biso   1.000  C
  C52      1.0000 0.58150  0.37090  0.43560  Biso   1.000  C
  C53      1.0000 0.18800  0.71400  0.63690  Biso   1.000  C
  C54      1.0000 0.81200  0.28600  0.36310  Biso   1.000  C
  C55      1.0000 0.40630  0.62840  0.72170  Biso   1.000  C
  C56      1.0000 0.59370  0.37160  0.27830  Biso   1.000  C
  N1       1.0000 0.35960  0.57740  0.12820  Biso   1.000  N
  N2       1.0000 0.64040  0.42260  0.87180  Biso   1.000  N
  C57      1.0000 0.33680  0.60000  0.05730  Biso   1.000  C
  C58      1.0000 0.66320  0.40000  0.94270  Biso   1.000  C
  C59      1.0000 0.31360  0.62420  0.97100  Biso   1.000  C
  C60      1.0000 0.68640  0.37580  0.02900  Biso   1.000  C
  N3       1.0000 0.15880  0.75490  0.38590  Biso   1.000  N
  N4       1.0000 0.84120  0.24510  0.61410  Biso   1.000  N
  C61      1.0000 0.26760  0.72040  0.35740  Biso   1.000  C
  C62      1.0000 0.73240  0.27960  0.64260  Biso   1.000  C
  C63      1.0000 0.40770  0.67150  0.32140  Biso   1.000  C
  C64      1.0000 0.59230  0.32850  0.67860  Biso   1.000  C
  H1       1.0000 0.40120  0.11210  0.11470  Biso   1.000  H
  H2       1.0000 0.59880  0.88790  0.88530  Biso   1.000  H
  H3       1.0000 0.40850  0.28460  0.14890  Biso   1.000  H
  H4       1.0000 0.59150  0.71540  0.85110  Biso   1.000  H
  H5       1.0000 0.19540  0.40790  0.18400  Biso   1.000  H
  H6       1.0000 0.80460  0.59210  0.81600  Biso   1.000  H
  H7       1.0000 0.97900  0.35010  0.18620  Biso   1.000  H
  H8       1.0000 0.02100  0.64990  0.81380  Biso   1.000  H
  H9       1.0000 0.97250  0.17720  0.14460  Biso   1.000  H
  H10      1.0000 0.02750  0.82280  0.85540  Biso   1.000  H
  H11      1.0000 0.36730  0.96420  0.00410  Biso   1.000  H
  H12      1.0000 0.63270  0.03580  0.99590  Biso   1.000  H
  H13      1.0000 0.35790  0.85300  0.06080  Biso   1.000  H
  H14      1.0000 0.64210  0.14700  0.93920  Biso   1.000  H
  H15      1.0000 0.41910  0.94530  0.09710  Biso   1.000  H
  H16      1.0000 0.58090  0.05470  0.90290  Biso   1.000  H
  H17      1.0000 0.14720  0.84080  0.18900  Biso   1.000  H
  H18      1.0000 0.85280  0.15920  0.81100  Biso   1.000  H
  H19      1.0000 0.06420  0.94950  0.22500  Biso   1.000  H
  H20      1.0000 0.93580  0.05050  0.77500  Biso   1.000  H
  H21      1.0000 0.23210  0.91520  0.23040  Biso   1.000  H
  H22      1.0000 0.76790  0.08480  0.76960  Biso   1.000  H
  H23      1.0000 0.32730  0.39170  0.86740  Biso   1.000  H
  H24      1.0000 0.67270  0.60830  0.13260  Biso   1.000  H
  H25      1.0000 0.37620  0.27000  0.84340  Biso   1.000  H
  H26      1.0000 0.62380  0.73000  0.15660  Biso   1.000  H
  H27      1.0000 0.34260  0.29060  0.93810  Biso   1.000  H
  H28      1.0000 0.65740  0.70940  0.06190  Biso   1.000  H
  H29      1.0000 0.13230  0.42330  0.76310  Biso   1.000  H
  H30      1.0000 0.86770  0.57670  0.23690  Biso   1.000  H
  H31      1.0000 0.01570  0.34940  0.77260  Biso   1.000  H
  H32      1.0000 0.98430  0.65060  0.22740  Biso   1.000  H
  H33      1.0000 0.17310  0.30000  0.74200  Biso   1.000  H
  H34      1.0000 0.82690  0.70000  0.25800  Biso   1.000  H
  H35      1.0000 0.96720  0.38510  0.92520  Biso   1.000  H
  H36      1.0000 0.03280  0.61490  0.07480  Biso   1.000  H
  H37      1.0000 0.08350  0.45920  0.91760  Biso   1.000  H
  H38      1.0000 0.91650  0.54080  0.08240  Biso   1.000  H
  H39      1.0000 0.09380  0.35800  0.98790  Biso   1.000  H
  H40      1.0000 0.90620  0.64200  0.01210  Biso   1.000  H
  H41      1.0000 0.19660  0.27960  0.34720  Biso   1.000  H
  H42      1.0000 0.80340  0.72040  0.65280  Biso   1.000  H
  H43      1.0000 0.14180  0.47220  0.35200  Biso   1.000  H
  H44      1.0000 0.85820  0.52780  0.64800  Biso   1.000  H
  H45      1.0000 0.15120  0.54470  0.47440  Biso   1.000  H
  H46      1.0000 0.84880  0.45530  0.52560  Biso   1.000  H
  H47      1.0000 0.21110  0.42950  0.59780  Biso   1.000  H
  H48      1.0000 0.78890  0.57050  0.40220  Biso   1.000  H
  H49      1.0000 0.26340  0.24130  0.59570  Biso   1.000  H
  H50      1.0000 0.73660  0.75870  0.40430  Biso   1.000  H
  H51      1.0000 0.21200  0.98360  0.38030  Biso   1.000  H
  H52      1.0000 0.78800  0.01640  0.61970  Biso   1.000  H
  H53      1.0000 0.27100  0.08480  0.33340  Biso   1.000  H
  H54      1.0000 0.72900  0.91520  0.66660  Biso   1.000  H
  H55      1.0000 0.11190  0.10200  0.36960  Biso   1.000  H
  H56      1.0000 0.88810  0.89800  0.63040  Biso   1.000  H
  H57      1.0000 0.13570  0.97550  0.55800  Biso   1.000  H
  H58      1.0000 0.86430  0.02450  0.44200  Biso   1.000  H
  H59      1.0000 0.03870  0.09370  0.53670  Biso   1.000  H
  H60      1.0000 0.96130  0.90630  0.46330  Biso   1.000  H
  H61      1.0000 0.15110  0.07380  0.60790  Biso   1.000  H
  H62      1.0000 0.84890  0.92620  0.39210  Biso   1.000  H
  H63      1.0000 0.38660  0.55980  0.56940  Biso   1.000  H
  H64      1.0000 0.61340  0.44020  0.43060  Biso   1.000  H
  H65      1.0000 0.52160  0.61490  0.56500  Biso   1.000  H
  H66      1.0000 0.47840  0.38510  0.43500  Biso   1.000  H
  H67      1.0000 0.38680  0.67230  0.51240  Biso   1.000  H
  H68      1.0000 0.61320  0.32770  0.48760  Biso   1.000  H
  H69      1.0000 0.15790  0.64400  0.64270  Biso   1.000  H
  H70      1.0000 0.84210  0.35600  0.35730  Biso   1.000  H
  H71      1.0000 0.15610  0.75570  0.58440  Biso   1.000  H
  H72      1.0000 0.84390  0.24430  0.41560  Biso   1.000  H
  H73      1.0000 0.14680  0.75510  0.68270  Biso   1.000  H
  H74      1.0000 0.85320  0.24490  0.31730  Biso   1.000  H
  H75      1.0000 0.38320  0.55590  0.72620  Biso   1.000  H
  H76      1.0000 0.61680  0.44410  0.27380  Biso   1.000  H
  H77      1.0000 0.35940  0.66720  0.76750  Biso   1.000  H
  H78      1.0000 0.64060  0.33280  0.23250  Biso   1.000  H
  H79      1.0000 0.50860  0.62100  0.72430  Biso   1.000  H
  H80      1.0000 0.49140  0.37900  0.27570  Biso   1.000  H
  H81      1.0000 0.21850  0.66790  0.96240  Biso   1.000  H
  H82      1.0000 0.78150  0.33210  0.03760  Biso   1.000  H
  H83      1.0000 0.32300  0.55610  0.94610  Biso   1.000  H
  H84      1.0000 0.67700  0.44390  0.05390  Biso   1.000  H
  H85      1.0000 0.38310  0.66520  0.94500  Biso   1.000  H
  H86      1.0000 0.61690  0.33480  0.05500  Biso   1.000  H
  H87      1.0000 0.46160  0.72870  0.30510  Biso   1.000  H
  H88      1.0000 0.53840  0.27130  0.69490  Biso   1.000  H
  H89      1.0000 0.39450  0.63660  0.27280  Biso   1.000  H
  H90      1.0000 0.60550  0.36340  0.72720  Biso   1.000  H
  H91      1.0000 0.45930  0.61700  0.36270  Biso   1.000  H
  H92      1.0000 0.54070  0.38300  0.63730  Biso   1.000  H
