data_image0
_cell_length_a       11.51
_cell_length_b       11.8
_cell_length_c       12.59
_cell_angle_alpha    116.03
_cell_angle_beta     100.42
_cell_angle_gamma    107.67

_symmetry_space_group_name_H-M    "P 1"
_symmetry_int_tables_number       1

loop_
  _symmetry_equiv_pos_as_xyz
  'x, y, z'

loop_
  _atom_site_label
  _atom_site_occupancy
  _atom_site_fract_x
  _atom_site_fract_y
  _atom_site_fract_z
  _atom_site_thermal_displace_type
  _atom_site_B_iso_or_equiv
  _atom_site_type_symbol
  Cu1      1.0000 0.02774  0.16595  0.58823  Biso   1.000  Cu
  Cu2      1.0000 0.97226  0.83405  0.41177  Biso   1.000  Cu
  Cu3      1.0000 0.77944  0.13149  0.50822  Biso   1.000  Cu
  Cu4      1.0000 0.22056  0.86851  0.49178  Biso   1.000  Cu
  Cu5      1.0000 0.88442  0.33878  0.45759  Biso   1.000  Cu
  Cu6      1.0000 0.11558  0.66122  0.54241  Biso   1.000  Cu
  Cu7      1.0000 0.98919  0.40290  0.69864  Biso   1.000  Cu
  Cu8      1.0000 0.01081  0.59710  0.30136  Biso   1.000  Cu
  S1       1.0000 0.01194  0.26854  0.78221  Biso   1.000  S
  S2       1.0000 0.98806  0.73146  0.21779  Biso   1.000  S
  S3       1.0000 0.81096  0.19770  0.89526  Biso   1.000  S
  S4       1.0000 0.18904  0.80230  0.10474  Biso   1.000  S
  N1       1.0000 0.75040  0.12360  0.65770  Biso   1.000  N
  N2       1.0000 0.24960  0.87640  0.34230  Biso   1.000  N
  C1       1.0000 0.84880  0.18840  0.76180  Biso   1.000  C
  C2       1.0000 0.15120  0.81160  0.23820  Biso   1.000  C
  C3       1.0000 0.64040  0.14410  0.80860  Biso   1.000  C
  C4       1.0000 0.35960  0.85590  0.19140  Biso   1.000  C
  C5       1.0000 0.64220  0.06780  0.79010  Biso   1.000  C
  C6       1.0000 0.35780  0.93220  0.20990  Biso   1.000  C
  C7       1.0000 0.62320  0.06980  0.66990  Biso   1.000  C
  C8       1.0000 0.37680  0.93020  0.33010  Biso   1.000  C
  S5       1.0000 0.85941  0.00192  0.38218  Biso   1.000  S
  S6       1.0000 0.14059  0.99808  0.61782  Biso   1.000  S
  S7       1.0000 0.96405  0.98958  0.17619  Biso   1.000  S
  S8       1.0000 0.03595  0.01042  0.82381  Biso   1.000  S
  N3       1.0000 0.91220  0.19510  0.31410  Biso   1.000  N
  N4       1.0000 0.08780  0.80490  0.68590  Biso   1.000  N
  C9       1.0000 0.91030  0.07960  0.29730  Biso   1.000  C
  C10      1.0000 0.08970  0.92040  0.70270  Biso   1.000  C
  C11      1.0000 0.98050  0.11710  0.12970  Biso   1.000  C
  C12      1.0000 0.01950  0.88290  0.87030  Biso   1.000  C
  C13      1.0000 0.96440  0.23700  0.23170  Biso   1.000  C
  C14      1.0000 0.03560  0.76300  0.76830  Biso   1.000  C
  S9       1.0000 0.69249  0.27545  0.49090  Biso   1.000  S
  S10      1.0000 0.30751  0.72455  0.50910  Biso   1.000  S
  S11      1.0000 0.60657  0.42243  0.70458  Biso   1.000  S
  S12      1.0000 0.39343  0.57757  0.29542  Biso   1.000  S
  N5       1.0000 0.84640  0.45490  0.73860  Biso   1.000  N
  N6       1.0000 0.15360  0.54510  0.26140  Biso   1.000  N
  C15      1.0000 0.73270  0.39190  0.65310  Biso   1.000  C
  C16      1.0000 0.26730  0.60810  0.34690  Biso   1.000  C
  C17      1.0000 0.72780  0.56660  0.85750  Biso   1.000  C
  C18      1.0000 0.27220  0.43340  0.14250  Biso   1.000  C
  C19      1.0000 0.84770  0.53610  0.86830  Biso   1.000  C
  C20      1.0000 0.15230  0.46390  0.13170  Biso   1.000  C
  S13      1.0000 0.11211  0.48678  0.60961  Biso   1.000  S
  S14      1.0000 0.88789  0.51322  0.39039  Biso   1.000  S
  S15      1.0000 0.31265  0.43552  0.49324  Biso   1.000  S
  S16      1.0000 0.68735  0.56448  0.50676  Biso   1.000  S
  N7       1.0000 0.17030  0.26640  0.54840  Biso   1.000  N
  N8       1.0000 0.82970  0.73360  0.45160  Biso   1.000  N
  C21      1.0000 0.19250  0.38110  0.55190  Biso   1.000  C
  C22      1.0000 0.80750  0.61890  0.44810  Biso   1.000  C
  C23      1.0000 0.31820  0.26670  0.42860  Biso   1.000  C
  C24      1.0000 0.68180  0.73330  0.57140  Biso   1.000  C
  C25      1.0000 0.25850  0.20420  0.50170  Biso   1.000  C
  C26      1.0000 0.74150  0.79580  0.49830  Biso   1.000  C
  C27      1.0000 0.38810  0.01400  0.95950  Biso   1.000  C
  C28      1.0000 0.61190  0.98600  0.04050  Biso   1.000  C
  C29      1.0000 0.40830  0.90320  0.87800  Biso   1.000  C
  C30      1.0000 0.59170  0.09680  0.12200  Biso   1.000  C
  C31      1.0000 0.47890  0.11000  0.08110  Biso   1.000  C
  C32      1.0000 0.52110  0.89000  0.91890  Biso   1.000  C
  C33      1.0000 0.45500  0.20380  0.15800  Biso   1.000  C
  C34      1.0000 0.54500  0.79620  0.84200  Biso   1.000  C
  C35      1.0000 0.39480  0.40060  0.88630  Biso   1.000  C
  C36      1.0000 0.60520  0.59940  0.11370  Biso   1.000  C
  C37      1.0000 0.46990  0.35920  0.93770  Biso   1.000  C
  C38      1.0000 0.53010  0.64080  0.06230  Biso   1.000  C
  C39      1.0000 0.41940  0.54170  0.94630  Biso   1.000  C
  C40      1.0000 0.58060  0.45830  0.05370  Biso   1.000  C
  C41      1.0000 0.34960  0.57940  0.90350  Biso   1.000  C
  C42      1.0000 0.65040  0.42060  0.09650  Biso   1.000  C
  H1       1.0000 0.58110  0.08040  0.82680  Biso   1.000  H
  H2       1.0000 0.41890  0.91960  0.17320  Biso   1.000  H
  H3       1.0000 0.62140  0.22660  0.83230  Biso   1.000  H
  H4       1.0000 0.37860  0.77340  0.16770  Biso   1.000  H
  H5       1.0000 0.62970  0.97390  0.77320  Biso   1.000  H
  H6       1.0000 0.37030  0.02610  0.22680  Biso   1.000  H
  H7       1.0000 0.57930  0.09340  0.82860  Biso   1.000  H
  H8       1.0000 0.42070  0.90660  0.17140  Biso   1.000  H
  H9       1.0000 0.59000  0.96780  0.63430  Biso   1.000  H
  H10      1.0000 0.41000  0.03220  0.36570  Biso   1.000  H
  H11      1.0000 0.55860  0.08590  0.62180  Biso   1.000  H
  H12      1.0000 0.44140  0.91410  0.37820  Biso   1.000  H
  H13      1.0000 0.56672  0.97379  0.59599  Biso   1.000  H
  H14      1.0000 0.43328  0.02621  0.40401  Biso   1.000  H
  H15      1.0000 0.57875  0.12977  0.67049  Biso   1.000  H
  H16      1.0000 0.42125  0.87023  0.32951  Biso   1.000  H
  H17      1.0000 0.06770  0.15190  0.12420  Biso   1.000  H
  H18      1.0000 0.93230  0.84810  0.87580  Biso   1.000  H
  H19      1.0000 0.91230  0.07460  0.04580  Biso   1.000  H
  H20      1.0000 0.08770  0.92540  0.95420  Biso   1.000  H
  H21      1.0000 0.05020  0.32000  0.28370  Biso   1.000  H
  H22      1.0000 0.94980  0.68000  0.71630  Biso   1.000  H
  H23      1.0000 0.90380  0.26280  0.19080  Biso   1.000  H
  H24      1.0000 0.09620  0.73720  0.80920  Biso   1.000  H
  H25      1.0000 0.74860  0.65660  0.86170  Biso   1.000  H
  H26      1.0000 0.25140  0.34340  0.13830  Biso   1.000  H
  H27      1.0000 0.69620  0.57070  0.92660  Biso   1.000  H
  H28      1.0000 0.30380  0.42930  0.07340  Biso   1.000  H
  H29      1.0000 0.92870  0.62500  0.92000  Biso   1.000  H
  H30      1.0000 0.07130  0.37500  0.08000  Biso   1.000  H
  H31      1.0000 0.84520  0.48190  0.91020  Biso   1.000  H
  H32      1.0000 0.15480  0.51810  0.08980  Biso   1.000  H
  H33      1.0000 0.26610  0.20590  0.33640  Biso   1.000  H
  H34      1.0000 0.73390  0.79410  0.66360  Biso   1.000  H
  H35      1.0000 0.40960  0.27830  0.44290  Biso   1.000  H
  H36      1.0000 0.59040  0.72170  0.55710  Biso   1.000  H
  H37      1.0000 0.20850  0.10140  0.44500  Biso   1.000  H
  H38      1.0000 0.79150  0.89860  0.55500  Biso   1.000  H
  H39      1.0000 0.32930  0.22430  0.57440  Biso   1.000  H
  H40      1.0000 0.67070  0.77570  0.42560  Biso   1.000  H
