data_image0
_cell_length_a       11.4055
_cell_length_b       14.3647
_cell_length_c       15.3589
_cell_angle_alpha    63.609
_cell_angle_beta     76.379
_cell_angle_gamma    66.795

_symmetry_space_group_name_H-M    "P 1"
_symmetry_int_tables_number       1

loop_
  _symmetry_equiv_pos_as_xyz
  'x, y, z'

loop_
  _atom_site_label
  _atom_site_occupancy
  _atom_site_fract_x
  _atom_site_fract_y
  _atom_site_fract_z
  _atom_site_thermal_displace_type
  _atom_site_B_iso_or_equiv
  _atom_site_type_symbol
  Cu1      1.0000 0.56555  0.39215  0.37682  Biso   1.000  Cu
  Cu2      1.0000 0.43445  0.60785  0.62318  Biso   1.000  Cu
  Cu3      1.0000 0.32640  0.59599  0.08799  Biso   1.000  Cu
  Cu4      1.0000 0.67360  0.40401  0.91200  Biso   1.000  Cu
  N1       1.0000 0.67260  0.44838  0.43072  Biso   1.000  N
  N2       1.0000 0.32740  0.55162  0.56928  Biso   1.000  N
  C1       1.0000 0.61970  0.55243  0.41789  Biso   1.000  C
  C2       1.0000 0.38030  0.44757  0.58211  Biso   1.000  C
  C3       1.0000 0.66831  0.59999  0.45971  Biso   1.000  C
  C4       1.0000 0.33169  0.40001  0.54029  Biso   1.000  C
  N3       1.0000 0.77277  0.54636  0.50486  Biso   1.000  N
  N4       1.0000 0.22723  0.45364  0.49514  Biso   1.000  N
  C5       1.0000 0.83292  0.43936  0.51553  Biso   1.000  C
  C6       1.0000 0.16708  0.56064  0.48447  Biso   1.000  C
  C7       1.0000 0.94713  0.37815  0.56385  Biso   1.000  C
  C8       1.0000 0.05287  0.62185  0.43615  Biso   1.000  C
  H1       1.0000 0.98350  0.41170  0.58660  Biso   1.000  H
  H2       1.0000 0.01650  0.58830  0.41340  Biso   1.000  H
  C9       1.0000 0.00468  0.26937  0.57746  Biso   1.000  C
  C10      1.0000 0.99532  0.73063  0.42254  Biso   1.000  C
  H3       1.0000 0.08250  0.22810  0.60870  Biso   1.000  H
  H4       1.0000 0.91750  0.77190  0.39130  Biso   1.000  H
  C11      1.0000 0.95078  0.21785  0.54613  Biso   1.000  C
  C12      1.0000 0.04922  0.78215  0.45387  Biso   1.000  C
  H5       1.0000 0.99190  0.14210  0.55740  Biso   1.000  H
  H6       1.0000 0.00810  0.85790  0.44260  Biso   1.000  H
  C13      1.0000 0.83936  0.27548  0.49939  Biso   1.000  C
  C14      1.0000 0.16064  0.72452  0.50061  Biso   1.000  C
  H7       1.0000 0.80310  0.23980  0.47900  Biso   1.000  H
  H8       1.0000 0.19690  0.76020  0.52100  Biso   1.000  H
  C15      1.0000 0.77939  0.38815  0.48205  Biso   1.000  C
  C16      1.0000 0.22061  0.61185  0.51795  Biso   1.000  C
  N5       1.0000 0.51234  0.61290  0.36221  Biso   1.000  N
  N6       1.0000 0.48766  0.38710  0.63779  Biso   1.000  N
  N7       1.0000 0.45567  0.55419  0.34608  Biso   1.000  N
  N8       1.0000 0.54433  0.44581  0.65392  Biso   1.000  N
  C17      1.0000 0.36359  0.62951  0.28816  Biso   1.000  C
  C18      1.0000 0.63641  0.37049  0.71184  Biso   1.000  C
  H9       1.0000 0.30620  0.61310  0.26570  Biso   1.000  H
  H10      1.0000 0.69380  0.38690  0.73430  Biso   1.000  H
  C19      1.0000 0.36128  0.73655  0.26410  Biso   1.000  C
  C20      1.0000 0.63872  0.26345  0.73590  Biso   1.000  C
  H11      1.0000 0.30510  0.80390  0.22310  Biso   1.000  H
  H12      1.0000 0.69490  0.19610  0.77690  Biso   1.000  H
  C21      1.0000 0.45702  0.72323  0.31211  Biso   1.000  C
  C22      1.0000 0.54298  0.27677  0.68789  Biso   1.000  C
  H13      1.0000 0.48070  0.78020  0.31090  Biso   1.000  H
  H14      1.0000 0.51930  0.21980  0.68910  Biso   1.000  H
  N9       1.0000 0.59997  0.70834  0.45624  Biso   1.000  N
  N10      1.0000 0.40003  0.29166  0.54376  Biso   1.000  N
  N11      1.0000 0.48402  0.72880  0.50777  Biso   1.000  N
  N12      1.0000 0.51598  0.27120  0.49223  Biso   1.000  N
  C23      1.0000 0.44188  0.83762  0.48391  Biso   1.000  C
  C24      1.0000 0.55812  0.16238  0.51609  Biso   1.000  C
  H15      1.0000 0.36260  0.87670  0.50850  Biso   1.000  H
  H16      1.0000 0.63740  0.12330  0.49150  Biso   1.000  H
  C25      1.0000 0.52946  0.88656  0.41822  Biso   1.000  C
  C26      1.0000 0.47054  0.11344  0.58178  Biso   1.000  C
  H17      1.0000 0.52130  0.96240  0.39060  Biso   1.000  H
  H18      1.0000 0.47870  0.03760  0.60940  Biso   1.000  H
  C27      1.0000 0.62966  0.80178  0.40214  Biso   1.000  C
  C28      1.0000 0.37034  0.19822  0.59786  Biso   1.000  C
  H19      1.0000 0.70530  0.80750  0.36100  Biso   1.000  H
  H20      1.0000 0.29470  0.19250  0.63900  Biso   1.000  H
  N13      1.0000 0.61513  0.37189  0.24550  Biso   1.000  N
  N14      1.0000 0.38487  0.62811  0.75450  Biso   1.000  N
  C29      1.0000 0.53338  0.36669  0.20126  Biso   1.000  C
  C30      1.0000 0.46662  0.63331  0.79874  Biso   1.000  C
  C31      1.0000 0.56342  0.36196  0.10783  Biso   1.000  C
  C32      1.0000 0.43658  0.63804  0.89217  Biso   1.000  C
  N15      1.0000 0.67026  0.37433  0.05622  Biso   1.000  N
  N16      1.0000 0.32974  0.62567  0.94378  Biso   1.000  N
  C33      1.0000 0.75727  0.38015  0.09942  Biso   1.000  C
  C34      1.0000 0.24273  0.61985  0.90058  Biso   1.000  C
  C35      1.0000 0.87503  0.38904  0.04750  Biso   1.000  C
  C36      1.0000 0.12497  0.61096  0.95250  Biso   1.000  C
  H21      1.0000 0.89080  0.39640  0.98160  Biso   1.000  H
  H22      1.0000 0.10920  0.60360  0.01840  Biso   1.000  H
  C37      1.0000 0.96591  0.38696  0.09294  Biso   1.000  C
  C38      1.0000 0.03409  0.61304  0.90706  Biso   1.000  C
  H23      1.0000 0.04620  0.39070  0.05890  Biso   1.000  H
  H24      1.0000 0.95380  0.60930  0.94110  Biso   1.000  H
  C39      1.0000 0.94240  0.37940  0.18959  Biso   1.000  C
  C40      1.0000 0.05760  0.62060  0.81041  Biso   1.000  C
  H25      1.0000 0.00700  0.37790  0.22010  Biso   1.000  H
  H26      1.0000 0.99300  0.62210  0.77990  Biso   1.000  H
  C41      1.0000 0.82739  0.37420  0.24017  Biso   1.000  C
  C42      1.0000 0.17261  0.62580  0.75983  Biso   1.000  C
  H27      1.0000 0.81170  0.37090  0.30490  Biso   1.000  H
  H28      1.0000 0.18830  0.62910  0.69510  Biso   1.000  H
  C43      1.0000 0.73254  0.37375  0.19642  Biso   1.000  C
  C44      1.0000 0.26746  0.62625  0.80358  Biso   1.000  C
  N17      1.0000 0.40830  0.37365  0.24661  Biso   1.000  N
  N18      1.0000 0.59170  0.62635  0.75339  Biso   1.000  N
  N19      1.0000 0.30852  0.46602  0.20353  Biso   1.000  N
  N20      1.0000 0.69148  0.53398  0.79647  Biso   1.000  N
  C45      1.0000 0.20482  0.44727  0.25947  Biso   1.000  C
  C46      1.0000 0.79518  0.55273  0.74053  Biso   1.000  C
  H29      1.0000 0.12020  0.49770  0.24840  Biso   1.000  H
  H30      1.0000 0.87980  0.50230  0.75160  Biso   1.000  H
  C47      1.0000 0.23674  0.34382  0.33655  Biso   1.000  C
  C48      1.0000 0.76326  0.65618  0.66345  Biso   1.000  C
  H31      1.0000 0.17970  0.31170  0.38580  Biso   1.000  H
  H32      1.0000 0.82030  0.68830  0.61420  Biso   1.000  H
  C49      1.0000 0.36685  0.29826  0.32661  Biso   1.000  C
  C50      1.0000 0.63315  0.70174  0.67339  Biso   1.000  C
  H33      1.0000 0.41820  0.22780  0.36750  Biso   1.000  H
  H34      1.0000 0.58180  0.77220  0.63250  Biso   1.000  H
  N21      1.0000 0.48156  0.34767  0.06266  Biso   1.000  N
  N22      1.0000 0.51844  0.65233  0.93734  Biso   1.000  N
  N23      1.0000 0.50937  0.36839  0.96488  Biso   1.000  N
  N24      1.0000 0.49063  0.63161  0.03512  Biso   1.000  N
  C51      1.0000 0.42375  0.34418  0.94118  Biso   1.000  C
  C52      1.0000 0.57625  0.65582  0.05882  Biso   1.000  C
  H35      1.0000 0.41870  0.35140  0.87750  Biso   1.000  H
  H36      1.0000 0.58130  0.64860  0.12250  Biso   1.000  H
  C53      1.0000 0.34157  0.30662  0.02196  Biso   1.000  C
  C54      1.0000 0.65843  0.69338  0.97804  Biso   1.000  C
  H37      1.0000 0.27300  0.28410  0.02330  Biso   1.000  H
  H38      1.0000 0.72700  0.71590  0.97670  Biso   1.000  H
  C55      1.0000 0.38037  0.30898  0.09837  Biso   1.000  C
  C56      1.0000 0.61963  0.69102  0.90163  Biso   1.000  C
  H39      1.0000 0.34420  0.28790  0.16370  Biso   1.000  H
  H40      1.0000 0.65580  0.71210  0.83630  Biso   1.000  H
  O1       1.0000 0.18110  0.71114  0.13376  Biso   1.000  O
  O2       1.0000 0.81890  0.28886  0.86624  Biso   1.000  O
  C57      1.0000 0.09460  0.79678  0.10357  Biso   1.000  C
  C58      1.0000 0.90540  0.20322  0.89643  Biso   1.000  C
  C59      1.0000 0.02330  0.85814  0.16700  Biso   1.000  C
  C60      1.0000 0.97670  0.14186  0.83300  Biso   1.000  C
  H41      1.0000 0.05850  0.81790  0.23100  Biso   1.000  H
  H42      1.0000 0.94150  0.18210  0.76900  Biso   1.000  H
  H43      1.0000 0.93280  0.86540  0.17470  Biso   1.000  H
  H44      1.0000 0.06720  0.13460  0.82530  Biso   1.000  H
  H45      1.0000 0.03180  0.93150  0.13710  Biso   1.000  H
  H46      1.0000 0.96820  0.06850  0.86290  Biso   1.000  H
  C61      1.0000 0.05630  0.84431  0.00235  Biso   1.000  C
  C62      1.0000 0.94370  0.15569  0.99765  Biso   1.000  C
  H47      1.0000 0.11130  0.79600  0.96890  Biso   1.000  H
  H48      1.0000 0.88870  0.20400  0.03110  Biso   1.000  H
  H49      1.0000 0.06550  0.91740  0.96720  Biso   1.000  H
  H50      1.0000 0.93450  0.08260  0.03280  Biso   1.000  H
  H51      1.0000 0.96700  0.85090  0.00430  Biso   1.000  H
  H52      1.0000 0.03300  0.14910  0.99570  Biso   1.000  H
  B1       1.0000 0.84808  0.63465  0.22630  Biso   1.000  B
  B2       1.0000 0.15192  0.36535  0.77370  Biso   1.000  B
  F1       1.0000 0.90616  0.53644  0.30091  Biso   1.000  F
  F2       1.0000 0.09384  0.46356  0.69909  Biso   1.000  F
  F3       1.0000 0.73135  0.63597  0.21502  Biso   1.000  F
  F4       1.0000 0.26865  0.36403  0.78498  Biso   1.000  F
  F5       1.0000 0.92452  0.64480  0.14128  Biso   1.000  F
  F6       1.0000 0.07548  0.35520  0.85872  Biso   1.000  F
  F7       1.0000 0.82960  0.72058  0.25162  Biso   1.000  F
  F8       1.0000 0.17040  0.27942  0.74838  Biso   1.000  F
  B3       1.0000 0.75573  0.07482  0.30888  Biso   1.000  B
  B4       1.0000 0.24427  0.92518  0.69112  Biso   1.000  B
  F9       1.0000 0.79487  0.13763  0.21661  Biso   1.000  F
  F10      1.0000 0.20513  0.86237  0.78339  Biso   1.000  F
  F11      1.0000 0.62291  0.11515  0.31884  Biso   1.000  F
  F12      1.0000 0.37709  0.88485  0.68116  Biso   1.000  F
  F13      1.0000 0.79598  0.96725  0.31945  Biso   1.000  F
  F14      1.0000 0.20402  0.03275  0.68055  Biso   1.000  F
  F15      1.0000 0.80528  0.08710  0.37598  Biso   1.000  F
  F16      1.0000 0.19472  0.91290  0.62402  Biso   1.000  F
  O3       1.0000 0.27810  0.94153  0.03590  Biso   1.000  O
  O4       1.0000 0.72190  0.05847  0.96410  Biso   1.000  O
  C63      1.0000 0.33040  0.99064  0.96119  Biso   1.000  C
  C64      1.0000 0.66960  0.00936  0.03881  Biso   1.000  C
  C65      1.0000 0.36780  0.95400  0.88030  Biso   1.000  C
  C66      1.0000 0.63220  0.04600  0.11970  Biso   1.000  C
  H53      1.0000 0.34840  0.88630  0.90030  Biso   1.000  H
  H54      1.0000 0.65160  0.11370  0.09970  Biso   1.000  H
  H55      1.0000 0.45970  0.93970  0.86280  Biso   1.000  H
  H56      1.0000 0.54030  0.06030  0.13720  Biso   1.000  H
  H57      1.0000 0.32020  0.01150  0.82390  Biso   1.000  H
  H58      1.0000 0.67980  0.98850  0.17610  Biso   1.000  H
  C67      1.0000 0.35250  0.09080  0.94830  Biso   1.000  C
  C68      1.0000 0.64750  0.90920  0.05170  Biso   1.000  C
  H59      1.0000 0.32880  0.10130  0.00970  Biso   1.000  H
  H60      1.0000 0.67120  0.89870  0.99030  Biso   1.000  H
  H61      1.0000 0.30030  0.15480  0.89740  Biso   1.000  H
  H62      1.0000 0.69970  0.84520  0.10260  Biso   1.000  H
  H63      1.0000 0.44310  0.08270  0.92920  Biso   1.000  H
  H64      1.0000 0.55690  0.91730  0.07080  Biso   1.000  H
  O5       1.0000 0.25330  0.13630  0.23290  Biso   1.000  O
  O6       1.0000 0.74670  0.86370  0.76710  Biso   1.000  O
  C69      1.0000 0.17580  0.09275  0.27548  Biso   1.000  C
  C70      1.0000 0.82420  0.90725  0.72452  Biso   1.000  C
  C71      1.0000 0.12080  0.08620  0.37430  Biso   1.000  C
  C72      1.0000 0.87920  0.91380  0.62570  Biso   1.000  C
  H65      1.0000 0.16000  0.12080  0.39650  Biso   1.000  H
  H66      1.0000 0.84000  0.87920  0.60350  Biso   1.000  H
  H67      1.0000 0.13770  0.00870  0.41900  Biso   1.000  H
  H68      1.0000 0.86230  0.99130  0.58100  Biso   1.000  H
  H69      1.0000 0.02830  0.12470  0.37300  Biso   1.000  H
  H70      1.0000 0.97170  0.87530  0.62700  Biso   1.000  H
  C73      1.0000 0.12510  0.04500  0.23050  Biso   1.000  C
  C74      1.0000 0.87490  0.95500  0.76950  Biso   1.000  C
  H71      1.0000 0.16900  0.05250  0.16590  Biso   1.000  H
  H72      1.0000 0.83100  0.94750  0.83410  Biso   1.000  H
  H73      1.0000 0.03310  0.08420  0.22410  Biso   1.000  H
  H74      1.0000 0.96690  0.91580  0.77590  Biso   1.000  H
  H75      1.0000 0.13960  0.96690  0.27180  Biso   1.000  H
  H76      1.0000 0.86040  0.03310  0.72820  Biso   1.000  H
