data_image0
_cell_length_a       11.939
_cell_length_b       14.495
_cell_length_c       8.271
_cell_angle_alpha    87.16
_cell_angle_beta     74.45
_cell_angle_gamma    67.08

_symmetry_space_group_name_H-M    "P 1"
_symmetry_int_tables_number       1

loop_
  _symmetry_equiv_pos_as_xyz
  'x, y, z'

loop_
  _atom_site_label
  _atom_site_occupancy
  _atom_site_fract_x
  _atom_site_fract_y
  _atom_site_fract_z
  _atom_site_thermal_displace_type
  _atom_site_B_iso_or_equiv
  _atom_site_type_symbol
  Cu1      1.0000 0.78240  0.80110  0.88410  Biso   1.000  Cu
  Cu2      1.0000 0.21760  0.19890  0.11590  Biso   1.000  Cu
  Cl1      1.0000 0.69410  0.74390  0.27250  Biso   1.000  Cl
  Cl2      1.0000 0.30590  0.25610  0.72750  Biso   1.000  Cl
  S1       1.0000 0.29180  0.56110  0.12500  Biso   1.000  S
  S2       1.0000 0.70820  0.43890  0.87500  Biso   1.000  S
  S3       1.0000 0.14950  0.07370  0.49470  Biso   1.000  S
  S4       1.0000 0.85050  0.92630  0.50530  Biso   1.000  S
  O1       1.0000 0.60400  0.83500  0.85800  Biso   1.000  O
  O2       1.0000 0.39600  0.16500  0.14200  Biso   1.000  O
  O3       1.0000 0.76400  0.70800  0.10300  Biso   1.000  O
  O4       1.0000 0.23600  0.29200  0.89700  Biso   1.000  O
  O5       1.0000 0.59300  0.71400  0.32300  Biso   1.000  O
  O6       1.0000 0.40700  0.28600  0.67700  Biso   1.000  O
  O7       1.0000 0.64400  0.85000  0.28100  Biso   1.000  O
  O8       1.0000 0.35600  0.15000  0.71900  Biso   1.000  O
  O9       1.0000 0.77600  0.70100  0.37500  Biso   1.000  O
  O10      1.0000 0.22400  0.29900  0.62500  Biso   1.000  O
  N1       1.0000 0.88500  0.68800  0.72100  Biso   1.000  N
  N2       1.0000 0.11500  0.31200  0.27900  Biso   1.000  N
  N3       1.0000 0.84500  0.89500  0.92700  Biso   1.000  N
  N4       1.0000 0.15500  0.10500  0.07300  Biso   1.000  N
  C1       1.0000 0.94000  0.62300  0.62800  Biso   1.000  C
  C2       1.0000 0.06000  0.37700  0.37200  Biso   1.000  C
  C3       1.0000 0.01900  0.53600  0.50300  Biso   1.000  C
  C4       1.0000 0.98100  0.46400  0.49700  Biso   1.000  C
  C5       1.0000 0.13600  0.54300  0.39300  Biso   1.000  C
  C6       1.0000 0.86400  0.45700  0.60700  Biso   1.000  C
  C7       1.0000 0.15700  0.54600  0.22000  Biso   1.000  C
  C8       1.0000 0.84300  0.45400  0.78000  Biso   1.000  C
  C9       1.0000 0.33000  0.56400  0.32500  Biso   1.000  C
  C10      1.0000 0.67000  0.43600  0.67500  Biso   1.000  C
  C11      1.0000 0.23400  0.55500  0.44400  Biso   1.000  C
  C12      1.0000 0.76600  0.44500  0.55600  Biso   1.000  C
  C13      1.0000 0.23300  0.54800  0.62400  Biso   1.000  C
  C14      1.0000 0.76700  0.45200  0.37600  Biso   1.000  C
  C15      1.0000 0.07500  0.54500  0.11500  Biso   1.000  C
  C16      1.0000 0.92500  0.45500  0.88500  Biso   1.000  C
  C17      1.0000 0.41900  0.57100  0.32800  Biso   1.000  C
  C18      1.0000 0.58100  0.42900  0.67200  Biso   1.000  C
  C19      1.0000 0.09200  0.06400  0.06700  Biso   1.000  C
  C20      1.0000 0.90800  0.93600  0.93300  Biso   1.000  C
  C21      1.0000 0.00300  0.01600  0.07200  Biso   1.000  C
  C22      1.0000 0.99700  0.98400  0.92800  Biso   1.000  C
  C23      1.0000 0.06200  0.99800  0.75600  Biso   1.000  C
  C24      1.0000 0.93800  0.00200  0.24400  Biso   1.000  C
  C25      1.0000 0.14100  0.91400  0.63100  Biso   1.000  C
  C26      1.0000 0.85900  0.08600  0.36900  Biso   1.000  C
  C27      1.0000 0.19400  0.94800  0.48900  Biso   1.000  C
  C28      1.0000 0.80600  0.05200  0.51100  Biso   1.000  C
  C29      1.0000 0.05900  0.08900  0.69700  Biso   1.000  C
  C30      1.0000 0.94100  0.91100  0.30300  Biso   1.000  C
  C31      1.0000 0.98300  0.19000  0.78300  Biso   1.000  C
  C32      1.0000 0.01700  0.81000  0.21700  Biso   1.000  C
  C33      1.0000 0.16100  0.80700  0.66100  Biso   1.000  C
  C34      1.0000 0.83900  0.19300  0.33900  Biso   1.000  C
  C35      1.0000 0.28000  0.88700  0.33100  Biso   1.000  C
  C36      1.0000 0.72000  0.11300  0.66900  Biso   1.000  C
  C37      1.0000 0.53200  0.91600  0.78200  Biso   1.000  C
  C38      1.0000 0.46800  0.08400  0.21800  Biso   1.000  C
  C39      1.0000 0.43500  0.89900  0.74500  Biso   1.000  C
  C40      1.0000 0.56500  0.10100  0.25500  Biso   1.000  C
  C41      1.0000 0.44700  0.80300  0.79300  Biso   1.000  C
  C42      1.0000 0.55300  0.19700  0.20700  Biso   1.000  C
  C43      1.0000 0.56700  0.75200  0.84500  Biso   1.000  C
  C44      1.0000 0.43300  0.24800  0.15500  Biso   1.000  C
  H1       1.0000 0.30050  0.49090  0.64460  Biso   1.000  H
  H2       1.0000 0.69950  0.50910  0.35540  Biso   1.000  H
  H3       1.0000 0.23580  0.60700  0.66990  Biso   1.000  H
  H4       1.0000 0.76420  0.39300  0.33010  Biso   1.000  H
  H5       1.0000 0.15430  0.54360  0.69250  Biso   1.000  H
  H6       1.0000 0.84570  0.45640  0.30750  Biso   1.000  H
  H7       1.0000 0.99210  0.60270  0.14560  Biso   1.000  H
  H8       1.0000 0.00790  0.39730  0.85440  Biso   1.000  H
  H9       1.0000 0.10960  0.54870  0.99700  Biso   1.000  H
  H10      1.0000 0.89040  0.45130  0.00300  Biso   1.000  H
  H11      1.0000 0.05400  0.48640  0.12740  Biso   1.000  H
  H12      1.0000 0.94600  0.51360  0.87260  Biso   1.000  H
  H13      1.0000 0.41510  0.62990  0.39270  Biso   1.000  H
  H14      1.0000 0.58490  0.37010  0.60730  Biso   1.000  H
  H15      1.0000 0.48420  0.51390  0.37280  Biso   1.000  H
  H16      1.0000 0.51580  0.48610  0.62720  Biso   1.000  H
  H17      1.0000 0.47840  0.57590  0.21470  Biso   1.000  H
  H18      1.0000 0.52160  0.42410  0.78530  Biso   1.000  H
  H19      1.0000 0.99870  0.24170  0.71280  Biso   1.000  H
  H20      1.0000 0.00130  0.75830  0.28720  Biso   1.000  H
  H21      1.0000 0.00160  0.19640  0.88620  Biso   1.000  H
  H22      1.0000 0.99840  0.80360  0.11380  Biso   1.000  H
  H23      1.0000 0.89350  0.20580  0.80780  Biso   1.000  H
  H24      1.0000 0.10650  0.79420  0.19220  Biso   1.000  H
  H25      1.0000 0.11120  0.79950  0.76920  Biso   1.000  H
  H26      1.0000 0.88880  0.20050  0.23080  Biso   1.000  H
  H27      1.0000 0.13720  0.77750  0.57810  Biso   1.000  H
  H28      1.0000 0.86280  0.22250  0.42190  Biso   1.000  H
  H29      1.0000 0.24780  0.76580  0.65290  Biso   1.000  H
  H30      1.0000 0.75220  0.23420  0.34710  Biso   1.000  H
  H31      1.0000 0.24050  0.85430  0.28020  Biso   1.000  H
  H32      1.0000 0.75950  0.14570  0.71980  Biso   1.000  H
  H33      1.0000 0.35640  0.83540  0.34770  Biso   1.000  H
  H34      1.0000 0.64360  0.16460  0.65230  Biso   1.000  H
  H35      1.0000 0.30820  0.92830  0.24530  Biso   1.000  H
  H36      1.0000 0.69180  0.07170  0.75470  Biso   1.000  H
  H37      1.0000 0.58790  0.92500  0.67330  Biso   1.000  H
  H38      1.0000 0.41210  0.07500  0.32670  Biso   1.000  H
  H39      1.0000 0.50050  0.97710  0.84670  Biso   1.000  H
  H40      1.0000 0.49950  0.02290  0.15330  Biso   1.000  H
  H41      1.0000 0.43790  0.90470  0.62600  Biso   1.000  H
  H42      1.0000 0.56210  0.09530  0.37400  Biso   1.000  H
  H43      1.0000 0.35460  0.94710  0.80620  Biso   1.000  H
  H44      1.0000 0.64540  0.05290  0.19380  Biso   1.000  H
  H45      1.0000 0.37760  0.80600  0.87990  Biso   1.000  H
  H46      1.0000 0.62240  0.19400  0.12010  Biso   1.000  H
  H47      1.0000 0.45120  0.76470  0.69600  Biso   1.000  H
  H48      1.0000 0.54880  0.23530  0.30400  Biso   1.000  H
  H49      1.0000 0.55530  0.71790  0.95150  Biso   1.000  H
  H50      1.0000 0.44470  0.28210  0.04850  Biso   1.000  H
  H51      1.0000 0.63410  0.69590  0.76490  Biso   1.000  H
  H52      1.0000 0.36590  0.30410  0.23510  Biso   1.000  H
