data_image0
_cell_length_a       7.907
_cell_length_b       10.435
_cell_length_c       7.731
_cell_angle_alpha    102.32
_cell_angle_beta     114.17
_cell_angle_gamma    71.87

_symmetry_space_group_name_H-M    "P 1"
_symmetry_int_tables_number       1

loop_
  _symmetry_equiv_pos_as_xyz
  'x, y, z'

loop_
  _atom_site_label
  _atom_site_occupancy
  _atom_site_fract_x
  _atom_site_fract_y
  _atom_site_fract_z
  _atom_site_thermal_displace_type
  _atom_site_B_iso_or_equiv
  _atom_site_type_symbol
  Br1      1.0000 0.50962  0.65634  0.40897  Biso   1.000  Br
  Br2      1.0000 0.49038  0.34366  0.59103  Biso   1.000  Br
  Cu1      1.0000 0.70801  0.42559  0.50911  Biso   1.000  Cu
  Cu2      1.0000 0.29199  0.57441  0.49089  Biso   1.000  Cu
  S1       1.0000 0.77970  0.28114  0.26340  Biso   1.000  S
  S2       1.0000 0.22030  0.71886  0.73660  Biso   1.000  S
  N1       1.0000 0.95430  0.43830  0.72330  Biso   1.000  N
  N2       1.0000 0.04570  0.56170  0.27670  Biso   1.000  N
  C1       1.0000 0.71550  0.12320  0.24670  Biso   1.000  C
  C2       1.0000 0.28450  0.87680  0.75330  Biso   1.000  C
  C3       1.0000 0.75860  0.02090  0.09150  Biso   1.000  C
  C4       1.0000 0.24140  0.97910  0.90850  Biso   1.000  C
  C5       1.0000 0.90740  0.90640  0.13690  Biso   1.000  C
  C6       1.0000 0.09260  0.09360  0.86310  Biso   1.000  C
  C7       1.0000 0.97030  0.82130  0.99710  Biso   1.000  C
  C8       1.0000 0.02970  0.17870  0.00290  Biso   1.000  C
  C9       1.0000 0.88300  0.85070  0.80960  Biso   1.000  C
  C10      1.0000 0.11700  0.14930  0.19040  Biso   1.000  C
  C11      1.0000 0.72470  0.96030  0.76240  Biso   1.000  C
  C12      1.0000 0.27530  0.03970  0.23760  Biso   1.000  C
  C13      1.0000 0.66390  0.04370  0.90200  Biso   1.000  C
  C14      1.0000 0.33610  0.95630  0.09800  Biso   1.000  C
  C15      1.0000 0.03980  0.23010  0.34160  Biso   1.000  C
  C16      1.0000 0.96020  0.76990  0.65840  Biso   1.000  C
  C17      1.0000 0.10360  0.42720  0.83640  Biso   1.000  C
  C18      1.0000 0.89640  0.57280  0.16360  Biso   1.000  C
  C19      1.0000 0.29340  0.41070  0.98270  Biso   1.000  C
  C20      1.0000 0.70660  0.58930  0.01730  Biso   1.000  C
  H1       1.0000 0.58590  0.14780  0.22830  Biso   1.000  H
  H2       1.0000 0.41410  0.85220  0.77170  Biso   1.000  H
  H3       1.0000 0.78120  0.07900  0.36320  Biso   1.000  H
  H4       1.0000 0.21880  0.92100  0.63680  Biso   1.000  H
  H5       1.0000 0.97020  0.88760  0.26640  Biso   1.000  H
  H6       1.0000 0.02980  0.11240  0.73360  Biso   1.000  H
  H7       1.0000 0.07800  0.74720  0.03520  Biso   1.000  H
  H8       1.0000 0.92200  0.25280  0.96480  Biso   1.000  H
  H9       1.0000 0.66740  0.98000  0.63420  Biso   1.000  H
  H10      1.0000 0.33260  0.02000  0.36580  Biso   1.000  H
  H11      1.0000 0.56330  0.12600  0.86720  Biso   1.000  H
  H12      1.0000 0.43670  0.87400  0.13280  Biso   1.000  H
  H13      1.0000 0.08580  0.30920  0.39350  Biso   1.000  H
  H14      1.0000 0.91420  0.69080  0.60650  Biso   1.000  H
  H15      1.0000 0.09290  0.17620  0.45170  Biso   1.000  H
  H16      1.0000 0.90710  0.82380  0.54830  Biso   1.000  H
  H17      1.0000 0.30750  0.49600  0.06350  Biso   1.000  H
  H18      1.0000 0.69250  0.50400  0.93650  Biso   1.000  H
  H19      1.0000 0.30810  0.35940  0.08300  Biso   1.000  H
  H20      1.0000 0.69190  0.64060  0.91700  Biso   1.000  H
  H21      1.0000 0.38260  0.37820  0.93590  Biso   1.000  H
  H22      1.0000 0.61740  0.62180  0.06410  Biso   1.000  H
