data_image0
_cell_length_a       20.883
_cell_length_b       15.842
_cell_length_c       11.352
_cell_angle_alpha    90
_cell_angle_beta     90
_cell_angle_gamma    90

_symmetry_space_group_name_H-M    "P 1"
_symmetry_int_tables_number       1

loop_
  _symmetry_equiv_pos_as_xyz
  'x, y, z'

loop_
  _atom_site_label
  _atom_site_occupancy
  _atom_site_fract_x
  _atom_site_fract_y
  _atom_site_fract_z
  _atom_site_thermal_displace_type
  _atom_site_B_iso_or_equiv
  _atom_site_type_symbol
  I1       1.0000 0.00000  0.64870  0.09010  Biso   1.000  I
  I2       1.0000 0.00000  0.35130  0.59010  Biso   1.000  I
  I3       1.0000 0.50000  0.14870  0.09010  Biso   1.000  I
  I4       1.0000 0.50000  0.85130  0.59010  Biso   1.000  I
  I5       1.0000 0.00000  0.66460  0.46850  Biso   1.000  I
  I6       1.0000 0.00000  0.33540  0.96850  Biso   1.000  I
  I7       1.0000 0.50000  0.16460  0.46850  Biso   1.000  I
  I8       1.0000 0.50000  0.83540  0.96850  Biso   1.000  I
  Cu1      1.0000 0.00000  0.55410  0.29690  Biso   1.000  Cu
  Cu2      1.0000 0.00000  0.44590  0.79690  Biso   1.000  Cu
  Cu3      1.0000 0.50000  0.05410  0.29690  Biso   1.000  Cu
  Cu4      1.0000 0.50000  0.94590  0.79690  Biso   1.000  Cu
  Cu5      1.0000 0.50000  0.25380  0.26960  Biso   1.000  Cu
  Cu6      1.0000 0.50000  0.74620  0.76960  Biso   1.000  Cu
  Cu7      1.0000 0.00000  0.75380  0.26960  Biso   1.000  Cu
  Cu8      1.0000 0.00000  0.24620  0.76960  Biso   1.000  Cu
  S1       1.0000 0.90130  0.49060  0.28210  Biso   1.000  S
  S2       1.0000 0.09870  0.50940  0.78210  Biso   1.000  S
  S3       1.0000 0.09870  0.49060  0.28210  Biso   1.000  S
  S4       1.0000 0.90130  0.50940  0.78210  Biso   1.000  S
  S5       1.0000 0.40130  0.99060  0.28210  Biso   1.000  S
  S6       1.0000 0.59870  0.00940  0.78210  Biso   1.000  S
  S7       1.0000 0.59870  0.99060  0.28210  Biso   1.000  S
  S8       1.0000 0.40130  0.00940  0.78210  Biso   1.000  S
  S9       1.0000 0.59460  0.32590  0.26210  Biso   1.000  S
  S10      1.0000 0.40540  0.67410  0.76210  Biso   1.000  S
  S11      1.0000 0.40540  0.32590  0.26210  Biso   1.000  S
  S12      1.0000 0.59460  0.67410  0.76210  Biso   1.000  S
  S13      1.0000 0.09460  0.82590  0.26210  Biso   1.000  S
  S14      1.0000 0.90540  0.17410  0.76210  Biso   1.000  S
  S15      1.0000 0.90540  0.82590  0.26210  Biso   1.000  S
  S16      1.0000 0.09460  0.17410  0.76210  Biso   1.000  S
  O1       1.0000 0.00000  0.02370  0.33040  Biso   1.000  O
  O2       1.0000 0.00000  0.97630  0.83040  Biso   1.000  O
  O3       1.0000 0.50000  0.52370  0.33040  Biso   1.000  O
  O4       1.0000 0.50000  0.47630  0.83040  Biso   1.000  O
  C1       1.0000 0.90900  0.37700  0.26500  Biso   1.000  C
  C2       1.0000 0.09100  0.62300  0.76500  Biso   1.000  C
  C3       1.0000 0.09100  0.37700  0.26500  Biso   1.000  C
  C4       1.0000 0.90900  0.62300  0.76500  Biso   1.000  C
  C5       1.0000 0.40900  0.87700  0.26500  Biso   1.000  C
  C6       1.0000 0.59100  0.12300  0.76500  Biso   1.000  C
  C7       1.0000 0.59100  0.87700  0.26500  Biso   1.000  C
  C8       1.0000 0.40900  0.12300  0.76500  Biso   1.000  C
  C9       1.0000 0.84460  0.33300  0.25600  Biso   1.000  C
  C10      1.0000 0.15540  0.66700  0.75600  Biso   1.000  C
  C11      1.0000 0.15540  0.33300  0.25600  Biso   1.000  C
  C12      1.0000 0.84460  0.66700  0.75600  Biso   1.000  C
  C13      1.0000 0.34460  0.83300  0.25600  Biso   1.000  C
  C14      1.0000 0.65540  0.16700  0.75600  Biso   1.000  C
  C15      1.0000 0.65540  0.83300  0.25600  Biso   1.000  C
  C16      1.0000 0.34460  0.16700  0.75600  Biso   1.000  C
  C17      1.0000 0.82590  0.27200  0.33900  Biso   1.000  C
  C18      1.0000 0.17410  0.72800  0.83900  Biso   1.000  C
  C19      1.0000 0.17410  0.27200  0.33900  Biso   1.000  C
  C20      1.0000 0.82590  0.72800  0.83900  Biso   1.000  C
  C21      1.0000 0.32590  0.77200  0.33900  Biso   1.000  C
  C22      1.0000 0.67410  0.22800  0.83900  Biso   1.000  C
  C23      1.0000 0.67410  0.77200  0.33900  Biso   1.000  C
  C24      1.0000 0.32590  0.22800  0.83900  Biso   1.000  C
  C25      1.0000 0.76380  0.24100  0.33700  Biso   1.000  C
  C26      1.0000 0.23620  0.75900  0.83700  Biso   1.000  C
  C27      1.0000 0.23620  0.24100  0.33700  Biso   1.000  C
  C28      1.0000 0.76380  0.75900  0.83700  Biso   1.000  C
  C29      1.0000 0.26380  0.74100  0.33700  Biso   1.000  C
  C30      1.0000 0.73620  0.25900  0.83700  Biso   1.000  C
  C31      1.0000 0.73620  0.74100  0.33700  Biso   1.000  C
  C32      1.0000 0.26380  0.25900  0.83700  Biso   1.000  C
  C33      1.0000 0.72040  0.26500  0.24800  Biso   1.000  C
  C34      1.0000 0.27960  0.73500  0.74800  Biso   1.000  C
  C35      1.0000 0.27960  0.26500  0.24800  Biso   1.000  C
  C36      1.0000 0.72040  0.73500  0.74800  Biso   1.000  C
  C37      1.0000 0.22040  0.76500  0.24800  Biso   1.000  C
  C38      1.0000 0.77960  0.23500  0.74800  Biso   1.000  C
  C39      1.0000 0.77960  0.76500  0.24800  Biso   1.000  C
  C40      1.0000 0.22040  0.23500  0.74800  Biso   1.000  C
  C41      1.0000 0.75730  0.82100  0.16200  Biso   1.000  C
  C42      1.0000 0.24270  0.17900  0.66200  Biso   1.000  C
  C43      1.0000 0.24270  0.82100  0.16200  Biso   1.000  C
  C44      1.0000 0.75730  0.17900  0.66200  Biso   1.000  C
  C45      1.0000 0.25730  0.32100  0.16200  Biso   1.000  C
  C46      1.0000 0.74270  0.67900  0.66200  Biso   1.000  C
  C47      1.0000 0.74270  0.32100  0.16200  Biso   1.000  C
  C48      1.0000 0.25730  0.67900  0.66200  Biso   1.000  C
  C49      1.0000 0.69680  0.85400  0.16600  Biso   1.000  C
  C50      1.0000 0.30320  0.14600  0.66600  Biso   1.000  C
  C51      1.0000 0.30320  0.85400  0.16600  Biso   1.000  C
  C52      1.0000 0.69680  0.14600  0.66600  Biso   1.000  C
  C53      1.0000 0.19680  0.35400  0.16600  Biso   1.000  C
  C54      1.0000 0.80320  0.64600  0.66600  Biso   1.000  C
  C55      1.0000 0.80320  0.35400  0.16600  Biso   1.000  C
  C56      1.0000 0.19680  0.64600  0.66600  Biso   1.000  C
  C57      1.0000 0.65230  0.23800  0.25700  Biso   1.000  C
  C58      1.0000 0.34770  0.76200  0.75700  Biso   1.000  C
  C59      1.0000 0.34770  0.23800  0.25700  Biso   1.000  C
  C60      1.0000 0.65230  0.76200  0.75700  Biso   1.000  C
  C61      1.0000 0.15230  0.73800  0.25700  Biso   1.000  C
  C62      1.0000 0.84770  0.26200  0.75700  Biso   1.000  C
  C63      1.0000 0.84770  0.73800  0.25700  Biso   1.000  C
  C64      1.0000 0.15230  0.26200  0.75700  Biso   1.000  C
  C65      1.0000 0.63570  0.00700  0.42100  Biso   1.000  C
  C66      1.0000 0.36430  0.99300  0.92100  Biso   1.000  C
  C67      1.0000 0.36430  0.00700  0.42100  Biso   1.000  C
  C68      1.0000 0.63570  0.99300  0.92100  Biso   1.000  C
  C69      1.0000 0.13570  0.50700  0.42100  Biso   1.000  C
  C70      1.0000 0.86430  0.49300  0.92100  Biso   1.000  C
  C71      1.0000 0.86430  0.50700  0.42100  Biso   1.000  C
  C72      1.0000 0.13570  0.49300  0.92100  Biso   1.000  C
  C73      1.0000 0.70570  0.98100  0.42800  Biso   1.000  C
  C74      1.0000 0.29430  0.01900  0.92800  Biso   1.000  C
  C75      1.0000 0.29430  0.98100  0.42800  Biso   1.000  C
  C76      1.0000 0.70570  0.01900  0.92800  Biso   1.000  C
  C77      1.0000 0.20570  0.48100  0.42800  Biso   1.000  C
  C78      1.0000 0.79430  0.51900  0.92800  Biso   1.000  C
  C79      1.0000 0.79430  0.48100  0.42800  Biso   1.000  C
  C80      1.0000 0.20570  0.51900  0.92800  Biso   1.000  C
  C81      1.0000 0.72830  0.92600  0.51400  Biso   1.000  C
  C82      1.0000 0.27170  0.07400  0.01400  Biso   1.000  C
  C83      1.0000 0.27170  0.92600  0.51400  Biso   1.000  C
  C84      1.0000 0.72830  0.07400  0.01400  Biso   1.000  C
  C85      1.0000 0.22830  0.42600  0.51400  Biso   1.000  C
  C86      1.0000 0.77170  0.57400  0.01400  Biso   1.000  C
  C87      1.0000 0.77170  0.42600  0.51400  Biso   1.000  C
  C88      1.0000 0.22830  0.57400  0.01400  Biso   1.000  C
  C89      1.0000 0.79030  0.89400  0.51100  Biso   1.000  C
  C90      1.0000 0.20970  0.10600  0.01100  Biso   1.000  C
  C91      1.0000 0.20970  0.89400  0.51100  Biso   1.000  C
  C92      1.0000 0.79030  0.10600  0.01100  Biso   1.000  C
  C93      1.0000 0.29030  0.39400  0.51100  Biso   1.000  C
  C94      1.0000 0.70970  0.60600  0.01100  Biso   1.000  C
  C95      1.0000 0.70970  0.39400  0.51100  Biso   1.000  C
  C96      1.0000 0.29030  0.60600  0.01100  Biso   1.000  C
  C97      1.0000 0.83110  0.91800  0.42500  Biso   1.000  C
  C98      1.0000 0.16890  0.08200  0.92500  Biso   1.000  C
  C99      1.0000 0.16890  0.91800  0.42500  Biso   1.000  C
  C100     1.0000 0.83110  0.08200  0.92500  Biso   1.000  C
  C101     1.0000 0.33110  0.41800  0.42500  Biso   1.000  C
  C102     1.0000 0.66890  0.58200  0.92500  Biso   1.000  C
  C103     1.0000 0.66890  0.41800  0.42500  Biso   1.000  C
  C104     1.0000 0.33110  0.58200  0.92500  Biso   1.000  C
  C105     1.0000 0.81120  0.98300  0.34700  Biso   1.000  C
  C106     1.0000 0.18880  0.01700  0.84700  Biso   1.000  C
  C107     1.0000 0.18880  0.98300  0.34700  Biso   1.000  C
  C108     1.0000 0.81120  0.01700  0.84700  Biso   1.000  C
  C109     1.0000 0.31120  0.48300  0.34700  Biso   1.000  C
  C110     1.0000 0.68880  0.51700  0.84700  Biso   1.000  C
  C111     1.0000 0.68880  0.48300  0.34700  Biso   1.000  C
  C112     1.0000 0.31120  0.51700  0.84700  Biso   1.000  C
  C113     1.0000 0.74930  0.01000  0.34800  Biso   1.000  C
  C114     1.0000 0.25070  0.99000  0.84800  Biso   1.000  C
  C115     1.0000 0.25070  0.01000  0.34800  Biso   1.000  C
  C116     1.0000 0.74930  0.99000  0.84800  Biso   1.000  C
  C117     1.0000 0.24930  0.51000  0.34800  Biso   1.000  C
  C118     1.0000 0.75070  0.49000  0.84800  Biso   1.000  C
  C119     1.0000 0.75070  0.51000  0.34800  Biso   1.000  C
  C120     1.0000 0.24930  0.49000  0.84800  Biso   1.000  C
  C121     1.0000 0.60410  0.37600  0.41000  Biso   1.000  C
  C122     1.0000 0.39590  0.62400  0.91000  Biso   1.000  C
  C123     1.0000 0.39590  0.37600  0.41000  Biso   1.000  C
  C124     1.0000 0.60410  0.62400  0.91000  Biso   1.000  C
  C125     1.0000 0.10410  0.87600  0.41000  Biso   1.000  C
  C126     1.0000 0.89590  0.12400  0.91000  Biso   1.000  C
  C127     1.0000 0.89590  0.87600  0.41000  Biso   1.000  C
  C128     1.0000 0.10410  0.12400  0.91000  Biso   1.000  C
  C129     1.0000 0.00000  0.03800  0.22110  Biso   1.000  C
  C130     1.0000 0.00000  0.96200  0.72110  Biso   1.000  C
  C131     1.0000 0.50000  0.53800  0.22110  Biso   1.000  C
  C132     1.0000 0.50000  0.46200  0.72110  Biso   1.000  C
  C133     1.0000 0.00000  0.13650  0.20540  Biso   1.000  C
  C134     1.0000 0.00000  0.86350  0.70540  Biso   1.000  C
  C135     1.0000 0.50000  0.63650  0.20540  Biso   1.000  C
  C136     1.0000 0.50000  0.36350  0.70540  Biso   1.000  C
  C137     1.0000 0.00000  0.15620  0.31070  Biso   1.000  C
  C138     1.0000 0.00000  0.84380  0.81070  Biso   1.000  C
  C139     1.0000 0.50000  0.65620  0.31070  Biso   1.000  C
  C140     1.0000 0.50000  0.34380  0.81070  Biso   1.000  C
  C141     1.0000 0.00000  0.10010  0.38720  Biso   1.000  C
  C142     1.0000 0.00000  0.89990  0.88720  Biso   1.000  C
  C143     1.0000 0.50000  0.60010  0.38720  Biso   1.000  C
  C144     1.0000 0.50000  0.39990  0.88720  Biso   1.000  C
  H1       1.0000 0.56530  0.86360  0.19890  Biso   1.000  H
  H2       1.0000 0.43470  0.13640  0.69890  Biso   1.000  H
  H3       1.0000 0.43470  0.86360  0.19890  Biso   1.000  H
  H4       1.0000 0.56530  0.13640  0.69890  Biso   1.000  H
  H5       1.0000 0.06530  0.36360  0.19890  Biso   1.000  H
  H6       1.0000 0.93470  0.63640  0.69890  Biso   1.000  H
  H7       1.0000 0.93470  0.36360  0.19890  Biso   1.000  H
  H8       1.0000 0.06530  0.63640  0.69890  Biso   1.000  H
  H9       1.0000 0.56770  0.85450  0.33490  Biso   1.000  H
  H10      1.0000 0.43230  0.14550  0.83490  Biso   1.000  H
  H11      1.0000 0.43230  0.85450  0.33490  Biso   1.000  H
  H12      1.0000 0.56770  0.14550  0.83490  Biso   1.000  H
  H13      1.0000 0.06770  0.35450  0.33490  Biso   1.000  H
  H14      1.0000 0.93230  0.64550  0.83490  Biso   1.000  H
  H15      1.0000 0.93230  0.35450  0.33490  Biso   1.000  H
  H16      1.0000 0.06770  0.64550  0.83490  Biso   1.000  H
  H17      1.0000 0.64310  0.75300  0.39780  Biso   1.000  H
  H18      1.0000 0.35690  0.24700  0.89780  Biso   1.000  H
  H19      1.0000 0.35690  0.75300  0.39780  Biso   1.000  H
  H20      1.0000 0.64310  0.24700  0.89780  Biso   1.000  H
  H21      1.0000 0.14310  0.25300  0.39780  Biso   1.000  H
  H22      1.0000 0.85690  0.74700  0.89780  Biso   1.000  H
  H23      1.0000 0.85690  0.25300  0.39780  Biso   1.000  H
  H24      1.0000 0.14310  0.74700  0.89780  Biso   1.000  H
  H25      1.0000 0.74940  0.70220  0.39530  Biso   1.000  H
  H26      1.0000 0.25060  0.29780  0.89530  Biso   1.000  H
  H27      1.0000 0.25060  0.70220  0.39530  Biso   1.000  H
  H28      1.0000 0.74940  0.29780  0.89530  Biso   1.000  H
  H29      1.0000 0.24940  0.20220  0.39530  Biso   1.000  H
  H30      1.0000 0.75060  0.79780  0.89530  Biso   1.000  H
  H31      1.0000 0.75060  0.20220  0.39530  Biso   1.000  H
  H32      1.0000 0.24940  0.79780  0.89530  Biso   1.000  H
  H33      1.0000 0.78700  0.83570  0.10130  Biso   1.000  H
  H34      1.0000 0.21300  0.16430  0.60130  Biso   1.000  H
  H35      1.0000 0.21300  0.83570  0.10130  Biso   1.000  H
  H36      1.0000 0.78700  0.16430  0.60130  Biso   1.000  H
  H37      1.0000 0.28700  0.33570  0.10130  Biso   1.000  H
  H38      1.0000 0.71300  0.66430  0.60130  Biso   1.000  H
  H39      1.0000 0.71300  0.33570  0.10130  Biso   1.000  H
  H40      1.0000 0.28700  0.66430  0.60130  Biso   1.000  H
  H41      1.0000 0.68230  0.88640  0.10220  Biso   1.000  H
  H42      1.0000 0.31770  0.11360  0.60220  Biso   1.000  H
  H43      1.0000 0.31770  0.88640  0.10220  Biso   1.000  H
  H44      1.0000 0.68230  0.11360  0.60220  Biso   1.000  H
  H45      1.0000 0.18230  0.38640  0.10220  Biso   1.000  H
  H46      1.0000 0.81770  0.61360  0.60220  Biso   1.000  H
  H47      1.0000 0.81770  0.38640  0.10220  Biso   1.000  H
  H48      1.0000 0.18230  0.61360  0.60220  Biso   1.000  H
  H49      1.0000 0.64170  0.20400  0.19370  Biso   1.000  H
  H50      1.0000 0.35830  0.79600  0.69370  Biso   1.000  H
  H51      1.0000 0.35830  0.20400  0.19370  Biso   1.000  H
  H52      1.0000 0.64170  0.79600  0.69370  Biso   1.000  H
  H53      1.0000 0.14170  0.70400  0.19370  Biso   1.000  H
  H54      1.0000 0.85830  0.29600  0.69370  Biso   1.000  H
  H55      1.0000 0.85830  0.70400  0.19370  Biso   1.000  H
  H56      1.0000 0.14170  0.29600  0.69370  Biso   1.000  H
  H57      1.0000 0.64610  0.20690  0.33000  Biso   1.000  H
  H58      1.0000 0.35390  0.79310  0.83000  Biso   1.000  H
  H59      1.0000 0.35390  0.20690  0.33000  Biso   1.000  H
  H60      1.0000 0.64610  0.79310  0.83000  Biso   1.000  H
  H61      1.0000 0.14610  0.70690  0.33000  Biso   1.000  H
  H62      1.0000 0.85390  0.29310  0.83000  Biso   1.000  H
  H63      1.0000 0.85390  0.70690  0.33000  Biso   1.000  H
  H64      1.0000 0.14610  0.29310  0.83000  Biso   1.000  H
  H65      1.0000 0.61240  0.97160  0.48210  Biso   1.000  H
  H66      1.0000 0.38760  0.02840  0.98210  Biso   1.000  H
  H67      1.0000 0.38760  0.97160  0.48210  Biso   1.000  H
  H68      1.0000 0.61240  0.02840  0.98210  Biso   1.000  H
  H69      1.0000 0.11240  0.47160  0.48210  Biso   1.000  H
  H70      1.0000 0.88760  0.52840  0.98210  Biso   1.000  H
  H71      1.0000 0.88760  0.47160  0.48210  Biso   1.000  H
  H72      1.0000 0.11240  0.52840  0.98210  Biso   1.000  H
  H73      1.0000 0.63240  0.06260  0.44760  Biso   1.000  H
  H74      1.0000 0.36760  0.93740  0.94760  Biso   1.000  H
  H75      1.0000 0.36760  0.06260  0.44760  Biso   1.000  H
  H76      1.0000 0.63240  0.93740  0.94760  Biso   1.000  H
  H77      1.0000 0.13240  0.56260  0.44760  Biso   1.000  H
  H78      1.0000 0.86760  0.43740  0.94760  Biso   1.000  H
  H79      1.0000 0.86760  0.56260  0.44760  Biso   1.000  H
  H80      1.0000 0.13240  0.43740  0.94760  Biso   1.000  H
  H81      1.0000 0.69740  0.90500  0.57420  Biso   1.000  H
  H82      1.0000 0.30260  0.09500  0.07420  Biso   1.000  H
  H83      1.0000 0.30260  0.90500  0.57420  Biso   1.000  H
  H84      1.0000 0.69740  0.09500  0.07420  Biso   1.000  H
  H85      1.0000 0.19740  0.40500  0.57420  Biso   1.000  H
  H86      1.0000 0.80260  0.59500  0.07420  Biso   1.000  H
  H87      1.0000 0.80260  0.40500  0.57420  Biso   1.000  H
  H88      1.0000 0.19740  0.59500  0.07420  Biso   1.000  H
  H89      1.0000 0.80300  0.85120  0.56660  Biso   1.000  H
  H90      1.0000 0.19700  0.14880  0.06660  Biso   1.000  H
  H91      1.0000 0.19700  0.85120  0.56660  Biso   1.000  H
  H92      1.0000 0.80300  0.14880  0.06660  Biso   1.000  H
  H93      1.0000 0.30300  0.35120  0.56660  Biso   1.000  H
  H94      1.0000 0.69700  0.64880  0.06660  Biso   1.000  H
  H95      1.0000 0.69700  0.35120  0.56660  Biso   1.000  H
  H96      1.0000 0.30300  0.64880  0.06660  Biso   1.000  H
  H97      1.0000 0.84220  0.00310  0.28870  Biso   1.000  H
  H98      1.0000 0.15780  0.99690  0.78870  Biso   1.000  H
  H99      1.0000 0.15780  0.00310  0.28870  Biso   1.000  H
  H100     1.0000 0.84220  0.99690  0.78870  Biso   1.000  H
  H101     1.0000 0.34220  0.50310  0.28870  Biso   1.000  H
  H102     1.0000 0.65780  0.49690  0.78870  Biso   1.000  H
  H103     1.0000 0.65780  0.50310  0.28870  Biso   1.000  H
  H104     1.0000 0.34220  0.49690  0.78870  Biso   1.000  H
  H105     1.0000 0.73520  0.05060  0.29390  Biso   1.000  H
  H106     1.0000 0.26480  0.94940  0.79390  Biso   1.000  H
  H107     1.0000 0.26480  0.05060  0.29390  Biso   1.000  H
  H108     1.0000 0.73520  0.94940  0.79390  Biso   1.000  H
  H109     1.0000 0.23520  0.55060  0.29390  Biso   1.000  H
  H110     1.0000 0.76480  0.44940  0.79390  Biso   1.000  H
  H111     1.0000 0.76480  0.55060  0.29390  Biso   1.000  H
  H112     1.0000 0.23520  0.44940  0.79390  Biso   1.000  H
  H113     1.0000 0.57110  0.41240  0.42120  Biso   1.000  H
  H114     1.0000 0.42890  0.58760  0.92120  Biso   1.000  H
  H115     1.0000 0.42890  0.41240  0.42120  Biso   1.000  H
  H116     1.0000 0.57110  0.58760  0.92120  Biso   1.000  H
  H117     1.0000 0.07110  0.91240  0.42120  Biso   1.000  H
  H118     1.0000 0.92890  0.08760  0.92120  Biso   1.000  H
  H119     1.0000 0.92890  0.91240  0.42120  Biso   1.000  H
  H120     1.0000 0.07110  0.08760  0.92120  Biso   1.000  H
  H121     1.0000 0.60110  0.32880  0.46600  Biso   1.000  H
  H122     1.0000 0.39890  0.67120  0.96600  Biso   1.000  H
  H123     1.0000 0.39890  0.32880  0.46600  Biso   1.000  H
  H124     1.0000 0.60110  0.67120  0.96600  Biso   1.000  H
  H125     1.0000 0.10110  0.82880  0.46600  Biso   1.000  H
  H126     1.0000 0.89890  0.17120  0.96600  Biso   1.000  H
  H127     1.0000 0.89890  0.82880  0.46600  Biso   1.000  H
  H128     1.0000 0.10110  0.17120  0.96600  Biso   1.000  H
