data_image0
_cell_length_a       9.395
_cell_length_b       3.962
_cell_length_c       8.882
_cell_angle_alpha    90
_cell_angle_beta     107.71
_cell_angle_gamma    90

_symmetry_space_group_name_H-M    "P 1"
_symmetry_int_tables_number       1

loop_
  _symmetry_equiv_pos_as_xyz
  'x, y, z'

loop_
  _atom_site_label
  _atom_site_occupancy
  _atom_site_fract_x
  _atom_site_fract_y
  _atom_site_fract_z
  _atom_site_thermal_displace_type
  _atom_site_B_iso_or_equiv
  _atom_site_type_symbol
  Br1      1.0000 0.32630  0.75000  0.33840  Biso   1.000  Br
  Br2      1.0000 0.67370  0.25000  0.66160  Biso   1.000  Br
  Cu1      1.0000 0.39300  0.26700  0.51810  Biso   1.000  Cu
  Cu2      1.0000 0.60700  0.76700  0.48190  Biso   1.000  Cu
  N1       1.0000 0.29000  0.23900  0.68400  Biso   1.000  N
  N2       1.0000 0.71000  0.73900  0.31600  Biso   1.000  N
  C1       1.0000 0.35000  0.32500  0.83100  Biso   1.000  C
  C2       1.0000 0.65000  0.82500  0.16900  Biso   1.000  C
  C3       1.0000 0.28700  0.29700  0.95000  Biso   1.000  C
  C4       1.0000 0.71300  0.79700  0.05000  Biso   1.000  C
  C5       1.0000 0.15100  0.14400  0.91400  Biso   1.000  C
  C6       1.0000 0.84900  0.64400  0.08600  Biso   1.000  C
  C7       1.0000 0.08700  0.02600  0.76900  Biso   1.000  C
  C8       1.0000 0.91300  0.52600  0.23100  Biso   1.000  C
  C9       1.0000 0.15500  0.06900  0.64900  Biso   1.000  C
  C10      1.0000 0.84500  0.56900  0.35100  Biso   1.000  C
  H1       1.0000 0.44700  0.42800  0.85900  Biso   1.000  H
  H2       1.0000 0.55300  0.92800  0.14100  Biso   1.000  H
  H3       1.0000 0.33700  0.37800  0.05500  Biso   1.000  H
  H4       1.0000 0.66300  0.87800  0.94500  Biso   1.000  H
  H5       1.0000 0.10700  0.11900  0.99900  Biso   1.000  H
  H6       1.0000 0.89300  0.61900  0.00100  Biso   1.000  H
  H7       1.0000 0.99600  0.91400  0.75400  Biso   1.000  H
  H8       1.0000 0.00400  0.41400  0.24600  Biso   1.000  H
  H9       1.0000 0.10700  0.98300  0.54600  Biso   1.000  H
  H10      1.0000 0.89300  0.48300  0.45400  Biso   1.000  H
